(PID.TID 0000.0001) 
(PID.TID 0000.0001) // ======================================================
(PID.TID 0000.0001) //                      MITgcm UV
(PID.TID 0000.0001) //                      =========
(PID.TID 0000.0001) // ======================================================
(PID.TID 0000.0001) // execution environment starting up...
(PID.TID 0000.0001) 
(PID.TID 0000.0001) // MITgcmUV version:  checkpoint67v
(PID.TID 0000.0001) // Build user:        bgetraer
(PID.TID 0000.0001) // Build host:        totten
(PID.TID 0000.0001) // Build date:        Wed Jul 26 11:53:30 AM EDT 2023
(PID.TID 0000.0001) 
(PID.TID 0000.0001) // =======================================================
(PID.TID 0000.0001) // Execution Environment parameter file "eedata"
(PID.TID 0000.0001) // =======================================================
(PID.TID 0000.0001) ># Example "eedata" file
(PID.TID 0000.0001) ># Lines beginning "#" are comments
(PID.TID 0000.0001) ># nTx - No. threads per process in X
(PID.TID 0000.0001) ># nTy - No. threads per process in Y
(PID.TID 0000.0001) > &EEPARMS
(PID.TID 0000.0001) > useCoupler=.FALSE.,
(PID.TID 0000.0001) > debugMode=.FALSE.,
(PID.TID 0000.0001) > /
(PID.TID 0000.0001) ># Note: Some systems use & as the
(PID.TID 0000.0001) ># namelist terminator. Other systems
(PID.TID 0000.0001) ># use a / character (as shown here).
(PID.TID 0000.0001) 
(PID.TID 0000.0001) // =======================================================
(PID.TID 0000.0001) // Computational Grid Specification ( see files "SIZE.h" )
(PID.TID 0000.0001) //                                  ( and "eedata"       )
(PID.TID 0000.0001) // =======================================================
(PID.TID 0000.0001)      nPx =    2 ; /* No. processes in X */
(PID.TID 0000.0001)      nPy =    6 ; /* No. processes in Y */
(PID.TID 0000.0001)      nSx =    1 ; /* No. tiles in X per process */
(PID.TID 0000.0001)      nSy =    1 ; /* No. tiles in Y per process */
(PID.TID 0000.0001)      sNx =   31 ; /* Tile size in X */
(PID.TID 0000.0001)      sNy =   17 ; /* Tile size in Y */
(PID.TID 0000.0001)      OLx =    3 ; /* Tile overlap distance in X */
(PID.TID 0000.0001)      OLy =    3 ; /* Tile overlap distance in Y */
(PID.TID 0000.0001)      nTx =    1 ; /* No. threads in X per process */
(PID.TID 0000.0001)      nTy =    1 ; /* No. threads in Y per process */
(PID.TID 0000.0001)       Nr =   55 ; /* No. levels in the vertical   */
(PID.TID 0000.0001)       Nx =   62 ; /* Total domain size in X ( = nPx*nSx*sNx ) */
(PID.TID 0000.0001)       Ny =  102 ; /* Total domain size in Y ( = nPy*nSy*sNy ) */
(PID.TID 0000.0001)   nTiles =    1 ; /* Total no. tiles per process ( = nSx*nSy ) */
(PID.TID 0000.0001)   nProcs =   12 ; /* Total no. processes ( = nPx*nPy ) */
(PID.TID 0000.0001) nThreads =    1 ; /* Total no. threads per process ( = nTx*nTy ) */
(PID.TID 0000.0001) usingMPI =    T ; /* Flag used to control whether MPI is in use */
(PID.TID 0000.0001)                   /*  note: To execute a program with MPI calls */
(PID.TID 0000.0001)                   /*  it must be launched appropriately e.g     */
(PID.TID 0000.0001)                   /*  "mpirun -np 64 ......"                    */
(PID.TID 0000.0001) useCoupler=   F ; /* Flag used to control communications with   */
(PID.TID 0000.0001)                   /*  other model components, through a coupler */
(PID.TID 0000.0001) useNest2W_parent =    F ;/* Control 2-W Nesting comm */
(PID.TID 0000.0001) useNest2W_child  =    F ;/* Control 2-W Nesting comm */
(PID.TID 0000.0001) debugMode =    F ; /* print debug msg. (sequence of S/R calls)  */
(PID.TID 0000.0001) printMapIncludesZeros=    F ; /* print zeros in Std.Output maps */
(PID.TID 0000.0001) maxLengthPrt1D=   65 /* maxLength of 1D array printed to StdOut */
(PID.TID 0000.0001) 
(PID.TID 0000.0001) ======= Starting MPI parallel Run =========
(PID.TID 0000.0001)  My Processor Name (len:  6 ) = totten
(PID.TID 0000.0001)  Located at (  0,  0) on processor grid (0:  1,0:  5)
(PID.TID 0000.0001)  Origin at  (     1,     1) on global grid (1:    62,1:   102)
(PID.TID 0000.0001)  North neighbor = processor 0001
(PID.TID 0000.0001)  South neighbor = processor 0005
(PID.TID 0000.0001)   East neighbor = processor 0006
(PID.TID 0000.0001)   West neighbor = processor 0006
(PID.TID 0000.0001) // ======================================================
(PID.TID 0000.0001) // Mapping of tiles to threads
(PID.TID 0000.0001) // ======================================================
(PID.TID 0000.0001) // -o- Thread   1, tiles (   1:   1,   1:   1)
(PID.TID 0000.0001) 
(PID.TID 0000.0001) // ======================================================
(PID.TID 0000.0001) // Tile <-> Tile connectvity table
(PID.TID 0000.0001) // ======================================================
(PID.TID 0000.0001) // Tile number: 000001 (process no. = 000000)
(PID.TID 0000.0001) //        WEST: Tile = 000002, Process = 000006, Comm = messages
(PID.TID 0000.0001) //                bi = 000001, bj = 000001
(PID.TID 0000.0001) //        EAST: Tile = 000002, Process = 000006, Comm = messages
(PID.TID 0000.0001) //                bi = 000001, bj = 000001
(PID.TID 0000.0001) //       SOUTH: Tile = 000011, Process = 000005, Comm = messages
(PID.TID 0000.0001) //                bi = 000001, bj = 000001
(PID.TID 0000.0001) //       NORTH: Tile = 000003, Process = 000001, Comm = messages
(PID.TID 0000.0001) //                bi = 000001, bj = 000001
(PID.TID 0000.0001) 
(PID.TID 0000.0001)  INI_PARMS: opening model parameter file "data"
(PID.TID 0000.0001)  OPEN_COPY_DATA_FILE: opening file data
(PID.TID 0000.0001) // =======================================================
(PID.TID 0000.0001) // Parameter file "data"
(PID.TID 0000.0001) // =======================================================
(PID.TID 0000.0001) ># ====================
(PID.TID 0000.0001) ># | Model parameters |
(PID.TID 0000.0001) ># ====================
(PID.TID 0000.0001) >#
(PID.TID 0000.0001) ># Continuous equation parameters
(PID.TID 0000.0001) > &PARM01
(PID.TID 0000.0001) ># momstepping=.FALSE.,
(PID.TID 0000.0001) ># tempstepping=.FALSE.,
(PID.TID 0000.0001) ># saltstepping=.FALSE.,
(PID.TID 0000.0001) ># BENJY: these should be of form Xref=nz*X_0. Why is nz 40 instead of 55?
(PID.TID 0000.0001) ># reference potential Temperature for each layer (deg C)
(PID.TID 0000.0001) > Tref = 40*-1.9,
(PID.TID 0000.0001) ># reference Salinity for each layer (ppt)
(PID.TID 0000.0001) > Sref = 40*34.4,
(PID.TID 0000.0001) > viscAr=1.E-3,
(PID.TID 0000.0001) > viscAh=10.0,
(PID.TID 0000.0001) > no_slip_sides=.FALSE.,
(PID.TID 0000.0001) > no_slip_bottom=.FALSE.,
(PID.TID 0000.0001) > diffKhT= 10.0,
(PID.TID 0000.0001) > diffKrT=5.E-5,
(PID.TID 0000.0001) > diffKhS= 10.0,
(PID.TID 0000.0001) > diffKrS=5.E-5,
(PID.TID 0000.0001) > bottomDragQuadratic=2.5E-3,
(PID.TID 0000.0001) > staggerTimestep = .true.,
(PID.TID 0000.0001) > tempAdvScheme=33,
(PID.TID 0000.0001) > saltAdvScheme=33,
(PID.TID 0000.0001) ># vectorInvariantMomentum = .true.,
(PID.TID 0000.0001) ># momImplVertAdv=.true.,
(PID.TID 0000.0001) ># tempImplVertAdv=.true.,
(PID.TID 0000.0001) ># saltImplVertAdv=.true.,
(PID.TID 0000.0001) > eosType='JMD95Z',
(PID.TID 0000.0001) >#tAlpha = 2.E-4,
(PID.TID 0000.0001) >#sBeta  = 7.4E-4,
(PID.TID 0000.0001) > HeatCapacity_cp = 3974.0,
(PID.TID 0000.0001) > rhoConst=1000.,
(PID.TID 0000.0001) > rhoNil=1000.,
(PID.TID 0000.0001) > gravity=9.81,
(PID.TID 0000.0001) > gBaro=9.81,
(PID.TID 0000.0001) > rigidLid=.FALSE.,
(PID.TID 0000.0001) > implicitFreeSurface=.TRUE.,
(PID.TID 0000.0001) > useRealFreshWaterFlux = .true.,
(PID.TID 0000.0001) > exactConserv=.TRUE.,
(PID.TID 0000.0001) > nonlinFreeSurf=4,
(PID.TID 0000.0001) > hFacInf=0.2,
(PID.TID 0000.0001) > hFacSup=2.0,
(PID.TID 0000.0001) > hFacMin=0.2,
(PID.TID 0000.0001) > readBinaryPrec=64,
(PID.TID 0000.0001) > debuglevel = 1,
(PID.TID 0000.0001) > selectCoriMap = 0,
(PID.TID 0000.0001) > f0 = -1.e-4,
(PID.TID 0000.0001) > useSingleCpuIO=.TRUE.,
(PID.TID 0000.0001) > globalFiles=.TRUE.,
(PID.TID 0000.0001) > useCoriolis=.TRUE.,
(PID.TID 0000.0001) > /
(PID.TID 0000.0001) >
(PID.TID 0000.0001) ># Elliptic solver parameters
(PID.TID 0000.0001) > &PARM02
(PID.TID 0000.0001) > cg2dMaxIters=1000,
(PID.TID 0000.0001) > cg2dTargetResidual=1.E-11,
(PID.TID 0000.0001) ># cg2dMinColumnEps = 1.
(PID.TID 0000.0001) ># pReleaseVisc = 1.
(PID.TID 0000.0001) > cg3dMaxIters=400,
(PID.TID 0000.0001) > cg3dTargetResidual=1.E-13,
(PID.TID 0000.0001) > /
(PID.TID 0000.0001) >
(PID.TID 0000.0001) >#Time stepping parameters
(PID.TID 0000.0001) > &PARM03
(PID.TID 0000.0001) > niter0 = 0
(PID.TID 0000.0001) > deltaT=100.0,
(PID.TID 0000.0001) > ntimesteps = 865
(PID.TID 0000.0001) > cAdjFreq = -1.,
(PID.TID 0000.0001) > pChkptFreq = 86400
(PID.TID 0000.0001) > chkptFreq=864000.0,
(PID.TID 0000.0001) > dumpFreq=864000,
(PID.TID 0000.0001) ># pickupsuff='ckptA'
(PID.TID 0000.0001) > monitorFreq=100.0,
(PID.TID 0000.0001) > monitorSelect=1,
(PID.TID 0000.0001) > /
(PID.TID 0000.0001) >
(PID.TID 0000.0001) ># Gridding parameters
(PID.TID 0000.0001) > &PARM04
(PID.TID 0000.0001) > usingCartesianGrid=.TRUE.,
(PID.TID 0000.0001) > delX=62*1000,
(PID.TID 0000.0001) > delY=102*1000,
(PID.TID 0000.0001) > delR=55*20,
(PID.TID 0000.0001) > xgOrigin=-1000,
(PID.TID 0000.0001) > ygOrigin=-2000,
(PID.TID 0000.0001) > /
(PID.TID 0000.0001) >
(PID.TID 0000.0001) ># Input datasets
(PID.TID 0000.0001) > &PARM05
(PID.TID 0000.0001) > bathyFile='BATHY60.box',
(PID.TID 0000.0001) > hydrogThetaFile='theta.init',	
(PID.TID 0000.0001) > hydrogSaltFile='salt.init',
(PID.TID 0000.0001) > pSurfInitFile='etainit.round.bin',
(PID.TID 0000.0001) > /
(PID.TID 0000.0001) 
(PID.TID 0000.0001)  INI_PARMS ; starts to read PARM01
(PID.TID 0000.0001)  INI_PARMS ; read PARM01 : OK
(PID.TID 0000.0001)  INI_PARMS ; starts to read PARM02
(PID.TID 0000.0001)  INI_PARMS ; read PARM02 : OK
(PID.TID 0000.0001)  INI_PARMS ; starts to read PARM03
(PID.TID 0000.0001)  INI_PARMS ; read PARM03 : OK
(PID.TID 0000.0001)  INI_PARMS ; starts to read PARM04
(PID.TID 0000.0001)  INI_PARMS ; read PARM04 : OK
(PID.TID 0000.0001)  INI_PARMS ; starts to read PARM05
(PID.TID 0000.0001)  INI_PARMS ; read PARM05 : OK
(PID.TID 0000.0001)  INI_PARMS: finished reading file "data"
(PID.TID 0000.0001)  PACKAGES_BOOT: opening data.pkg
(PID.TID 0000.0001)  OPEN_COPY_DATA_FILE: opening file data.pkg
(PID.TID 0000.0001) // =======================================================
(PID.TID 0000.0001) // Parameter file "data.pkg"
(PID.TID 0000.0001) // =======================================================
(PID.TID 0000.0001) ># Packages (lines beginning "#" are comments)
(PID.TID 0000.0001) > &PACKAGES
(PID.TID 0000.0001) > useOBCS=.TRUE.,
(PID.TID 0000.0001) > useShelfIce=.TRUE.,
(PID.TID 0000.0001) > useDiagnostics = .TRUE.,
(PID.TID 0000.0001) > /
(PID.TID 0000.0001) 
(PID.TID 0000.0001)  PACKAGES_BOOT: finished reading data.pkg
(PID.TID 0000.0001)  PACKAGES_BOOT: On/Off package Summary
 --------  pkgs with a standard "usePKG" On/Off switch in "data.pkg":  --------
 pkg/obcs                 compiled   and   used ( useOBCS                  = T )
 pkg/shelfice             compiled   and   used ( useShelfIce              = T )
 pkg/diagnostics          compiled   and   used ( useDiagnostics           = T )
 -------- pkgs without standard "usePKG" On/Off switch in "data.pkg":  --------
 pkg/generic_advdiff      compiled   and   used ( useGAD                   = T )
 pkg/mom_common           compiled   and   used ( momStepping              = T )
 pkg/mom_vecinv           compiled but not used ( +vectorInvariantMomentum = F )
 pkg/mom_fluxform         compiled   and   used ( & not vectorInvariantMom = T )
 pkg/monitor              compiled   and   used ( monitorFreq > 0.         = T )
 pkg/debug                compiled but not used ( debugMode                = F )
 pkg/rw                   compiled   and   used
 pkg/mdsio                compiled   and   used
(PID.TID 0000.0001)  PACKAGES_BOOT: End of package Summary
(PID.TID 0000.0001) 
(PID.TID 0000.0001)  OBCS_READPARMS: opening data.obcs
(PID.TID 0000.0001)  OPEN_COPY_DATA_FILE: opening file data.obcs
(PID.TID 0000.0001) // =======================================================
(PID.TID 0000.0001) // Parameter file "data.obcs"
(PID.TID 0000.0001) // =======================================================
(PID.TID 0000.0001) ># Open-boundaries
(PID.TID 0000.0001) > &OBCS_PARM01
(PID.TID 0000.0001) > OB_Jnorth=62*102,
(PID.TID 0000.0001) > useOBCSprescribe=.true.,
(PID.TID 0000.0001) > useOBCSsponge=.true.,
(PID.TID 0000.0001) > useLinearSponge = .TRUE.,
(PID.TID 0000.0001) ># OBWuFile='uvel.obw',
(PID.TID 0000.0001) ># OBNvFile='vvel.obw',
(PID.TID 0000.0001) > OBNtFile='theta.obw',
(PID.TID 0000.0001) > OBNsFile='salt.obw',
(PID.TID 0000.0001) > useOrlanskiNorth=.FALSE.,
(PID.TID 0000.0001) > useOBCSbalance=.TRUE.,
(PID.TID 0000.0001) > OBCS_balanceFacN=1.,
(PID.TID 0000.0001) > /
(PID.TID 0000.0001) >
(PID.TID 0000.0001) ># Orlanski parameters
(PID.TID 0000.0001) > &OBCS_PARM02
(PID.TID 0000.0001) >#Cmax=0.45,
(PID.TID 0000.0001) >#cVelTimeScale=1000.,
(PID.TID 0000.0001) > /
(PID.TID 0000.0001) >
(PID.TID 0000.0001) ># Sponge layer parameters
(PID.TID 0000.0001) > &OBCS_PARM03
(PID.TID 0000.0001) > spongeThickness = 5,
(PID.TID 0000.0001) > Vrelaxobcsbound = 864000.,
(PID.TID 0000.0001) > Urelaxobcsbound = 864000.,
(PID.TID 0000.0001) > /
(PID.TID 0000.0001) 
(PID.TID 0000.0001)  OBCS_READPARMS: finished reading data.obcs
(PID.TID 0000.0001)  OB_indexUnset = /* unset OB index value (i.e. no OB) */
(PID.TID 0000.0001)                       0
(PID.TID 0000.0001)     ;
(PID.TID 0000.0001)  Northern OB global indices : OB_Jnorth =
(PID.TID 0000.0001)    62 @      102                            /* I =  1: 62 */
(PID.TID 0000.0001)  Southern OB global indices : OB_Jsouth =
(PID.TID 0000.0001)    62 @        0                            /* I =  1: 62 */
(PID.TID 0000.0001)  Eastern  OB global indices : OB_Ieast =
(PID.TID 0000.0001)   102 @        0                            /* J =  1:102 */
(PID.TID 0000.0001)  Western  OB global indices : OB_Iwest =
(PID.TID 0000.0001)   102 @        0                            /* J =  1:102 */
(PID.TID 0000.0001) 
(PID.TID 0000.0001)  SHELFICE_READPARMS: opening data.shelfice
(PID.TID 0000.0001)  OPEN_COPY_DATA_FILE: opening file data.shelfice
(PID.TID 0000.0001) // =======================================================
(PID.TID 0000.0001) // Parameter file "data.shelfice"
(PID.TID 0000.0001) // =======================================================
(PID.TID 0000.0001) ># ===================================
(PID.TID 0000.0001) ># | Parameters for SHELFICE package |
(PID.TID 0000.0001) ># ===================================
(PID.TID 0000.0001) > &SHELFICE_PARM01
(PID.TID 0000.0001) > SHELFICEwriteState = .true.,
(PID.TID 0000.0001) > SHELFICEconserve = .true.,
(PID.TID 0000.0001) > SHELFICEboundaryLayer = .true.,
(PID.TID 0000.0001) > SHELFICEtopoFile='shelftopo.round.bin',
(PID.TID 0000.0001) > SHI_withBL_realFWflux=.true.
(PID.TID 0000.0001) > SHELFICEmassFile = 'shelficemassinit.bin',
(PID.TID 0000.0001) > SHELFICEMassDynTendFile = 'shelfice_dmdt.bin'
(PID.TID 0000.0001) > SHELFICEuseGammaFrict = .true.,
(PID.TID 0000.0001) > SHELFICEDragQuadratic = 0.0097,
(PID.TID 0000.0001) > shiCdrag = 0.0097,
(PID.TID 0000.0001) > SHELFICEheatTransCoeff = 0.0135,
(PID.TID 0000.0001) > SHELFICEsaltTransCoeff = 0.000265,
(PID.TID 0000.0001) > SHELFICEMassStepping = .true.,
(PID.TID 0000.0001) > SHELFICERemeshFrequency = 3600.0,
(PID.TID 0000.0001) > SHELFICESplitThreshold =1.3,
(PID.TID 0000.0001) > SHELFICEMergeThreshold =0.29,
(PID.TID 0000.0001) > SHELFICE_conserve_ssh = .true.,
(PID.TID 0000.0001) > SHELFICEaddrunoff=.FALSE.
(PID.TID 0000.0001) > SHELFICESubglFluxFile='runoff_flux.bin'
(PID.TID 0000.0001) > /
(PID.TID 0000.0001) 
(PID.TID 0000.0001)  SHELFICE_READPARMS: finished reading data.shelfice
(PID.TID 0000.0001)  DIAGNOSTICS_READPARMS: opening data.diagnostics
(PID.TID 0000.0001)  OPEN_COPY_DATA_FILE: opening file data.diagnostics
(PID.TID 0000.0001) // =======================================================
(PID.TID 0000.0001) // Parameter file "data.diagnostics"
(PID.TID 0000.0001) // =======================================================
(PID.TID 0000.0001) ># Diagnostic Package Choices
(PID.TID 0000.0001) >#-----------------
(PID.TID 0000.0001) ># for each output-stream:
(PID.TID 0000.0001) >#  filename(n) : prefix of the output file name (only 8.c long) for outp.stream n
(PID.TID 0000.0001) >#  frequency(n):< 0 : write snap-shot output every |frequency| seconds
(PID.TID 0000.0001) >#               > 0 : write time-average output every frequency seconds
(PID.TID 0000.0001) >#  timePhase(n)     : write at time = timePhase + multiple of |frequency|
(PID.TID 0000.0001) >#  averagingFreq(n) : frequency (in s) for periodic averaging interval
(PID.TID 0000.0001) >#  averagingPhase(n): phase     (in s) for periodic averaging interval
(PID.TID 0000.0001) >#  repeatCycle(n)   : number of averaging intervals in 1 cycle
(PID.TID 0000.0001) >#  levels(:,n) : list of levels to write to file (Notes: declared as REAL)
(PID.TID 0000.0001) >#                 when this entry is missing, select all common levels of this list
(PID.TID 0000.0001) >#  fields(:,n) : list of diagnostics fields (8.c) (see "available_diagnostics.log"
(PID.TID 0000.0001) >#                 file for the list of all available diag. in this particular config)
(PID.TID 0000.0001) >#-----------------
(PID.TID 0000.0001) > &DIAGNOSTICS_LIST
(PID.TID 0000.0001) ># diag_mnc     = .FALSE.,
(PID.TID 0000.0001) ># dumpAtLast   = .TRUE.,
(PID.TID 0000.0001) >  fields(1:6,1) =
(PID.TID 0000.0001) >#       'ETAN    ','oceTAUX ','oceTAUY ',
(PID.TID 0000.0001) >#                 'oceQnet ','oceFWflx','MXLDEPTH',
(PID.TID 0000.0001) >                'SHIfwFlx','SHI_mass','SHIRshel',
(PID.TID 0000.0001) >                 'ETAN    ','SHIuStar','SHIForcT'
(PID.TID 0000.0001) >#                 'SHIuLocM','SHIvLocM','SHIwLocM','SHItLocM','SHIsLocM',
(PID.TID 0000.0001) >#		 'SHItLocB','SHIsLocB'
(PID.TID 0000.0001) >#                'SHIForcT','SHIForcS',
(PID.TID 0000.0001) >#                'surForcT','surForcS','TFLUX   ','SFLUX   ','oceFreez',
(PID.TID 0000.0001) >#                 'TRELAX  ','SRELAX  ',
(PID.TID 0000.0001) >#                'GM_VisbK',
(PID.TID 0000.0001) >#  fields(1,1)='ETAN'
(PID.TID 0000.0001) >   filename(1) = 'surfDiag',
(PID.TID 0000.0001) >   frequency(1) =  86400,
(PID.TID 0000.0001) >   fields(1:5,2) = 'UVEL    ','VVEL    ','WVEL    ',
(PID.TID 0000.0001) >                 'THETA   ','SALT    '
(PID.TID 0000.0001) >   filename(2) = 'dynDiag',
(PID.TID 0000.0001) >  frequency(2) =  2592000.,
(PID.TID 0000.0001) >  fields(1,3) = 'SHIfwFlx'
(PID.TID 0000.0001) >  filename(3) = 'SHICE_fwFluxtave'
(PID.TID 0000.0001) > frequency(3) = 86400
(PID.TID 0000.0001) >  fields(1,4) = 'SHI_mass'
(PID.TID 0000.0001) >  filename(4) = 'SHICE_mass'
(PID.TID 0000.0001) > frequency(4) = -86400
(PID.TID 0000.0001) > timephase(4) = 0
(PID.TID 0000.0001) >#   fields(1:5,3) = 'SI_Uvel ','SI_Vvel ','SI_Thick','SI_hmask','SI_float',
(PID.TID 0000.0001) >#   filename(3) = 'streamice',
(PID.TID 0000.0001) > frequency(3) = 86400
(PID.TID 0000.0001) >#  fields(1,3) = 'EXFpreci','EXFuwind','EXFvwind','EXFtaux ','EXFtauy ',
(PID.TID 0000.0001) >#                'EXFlwdn ','EXFswdn ','EXFatemp','EXFaqh  ','EXFpress',
(PID.TID 0000.0001) >#                'GM_PsiX ','GM_PsiY ',
(PID.TID 0000.0001) >#                'GM_Kwx  ','GM_Kwy  ','GM_Kwz  ',
(PID.TID 0000.0001) >#                'GM_Kux  ','GM_Kvy  ',
(PID.TID 0000.0001) >#                'GM_Kuz  ','GM_Kvz  ',
(PID.TID 0000.0001) >#- disable this output list by commenting out the file name
(PID.TID 0000.0001) >#  filename(3) = 'diagsEXF',
(PID.TID 0000.0001) > frequency(3) = 86400
(PID.TID 0000.0001) >#  fields(1,4) = 'ADVx_TH ','ADVy_TH ','ADVr_TH ',
(PID.TID 0000.0001) >#                'DIFx_TH ','DIFy_TH ','DFrE_TH ',
(PID.TID 0000.0001) >#                'DFrI_TH ',
(PID.TID 0000.0001) >#                'ADVx_SLT',
(PID.TID 0000.0001) >#  filename(4) = 'flxDiag',
(PID.TID 0000.0001) > frequency(4) = -86400
(PID.TID 0000.0001) > /
(PID.TID 0000.0001) >
(PID.TID 0000.0001) ># Parameter for Diagnostics of per level statistics:
(PID.TID 0000.0001) >#-----------------
(PID.TID 0000.0001) ># for each output-stream:
(PID.TID 0000.0001) >#  stat_fname(n) : prefix of the output file name (only 8.c long) for outp.stream n
(PID.TID 0000.0001) >#  stat_freq(n):< 0 : write snap-shot output every |stat_freq| seconds
(PID.TID 0000.0001) >#               > 0 : write time-average output every stat_freq seconds
(PID.TID 0000.0001) >#  stat_phase(n)    : write at time = stat_phase + multiple of |stat_freq|
(PID.TID 0000.0001) >#  stat_region(:,n) : list of "regions" (default: 1 region only=global)
(PID.TID 0000.0001) >#  stat_fields(:,n) : list of diagnostics fields (8.c) (see "available_diagnostics.log"
(PID.TID 0000.0001) >#                 file for the list of all available diag. in this particular config)
(PID.TID 0000.0001) >#-----------------
(PID.TID 0000.0001) > &DIAG_STATIS_PARMS
(PID.TID 0000.0001) >#- regional mask: 3 lat. band: 1 : y <= -24 ; 2 : -24<y<24 ; 3 : 24 <= y
(PID.TID 0000.0001) ># diagSt_regMaskFile='regMask_lat24.bin',
(PID.TID 0000.0001) ># nSetRegMskFile=1,
(PID.TID 0000.0001) ># set_regMask(1)= 1,  1,  1,
(PID.TID 0000.0001) ># val_regMask(1)= 1., 2., 3.,
(PID.TID 0000.0001) >#---
(PID.TID 0000.0001) >#stat_fields(1,1)= 'ETAN    ','UVEL    ','VVEL    ','WVEL    ',
(PID.TID 0000.0001) >#                  'THETA   ','SALT    ','SIarea  ','SIheff  ',
(PID.TID 0000.0001) >#   stat_fname(1)= 'dynStDiag',
(PID.TID 0000.0001) >#    stat_freq(1)= 864000.,
(PID.TID 0000.0001) > /
(PID.TID 0000.0001) >
(PID.TID 0000.0001) 
(PID.TID 0000.0001) S/R DIAGNOSTICS_READPARMS, read namelist "diagnostics_list": start
(PID.TID 0000.0001) S/R DIAGNOSTICS_READPARMS, read namelist "diagnostics_list": OK
(PID.TID 0000.0001) S/R DIAGNOSTICS_READPARMS, read namelist "DIAG_STATIS_PARMS": start
(PID.TID 0000.0001) S/R DIAGNOSTICS_READPARMS, read namelist "DIAG_STATIS_PARMS": OK
(PID.TID 0000.0001)  DIAGNOSTICS_READPARMS: global parameter summary:
(PID.TID 0000.0001)  dumpAtLast = /* always write time-ave diags at the end */
(PID.TID 0000.0001)                   F
(PID.TID 0000.0001)     ;
(PID.TID 0000.0001)  diag_mnc =   /* write NetCDF output files */
(PID.TID 0000.0001)                   F
(PID.TID 0000.0001)     ;
(PID.TID 0000.0001)  useMissingValue = /* put MissingValue where mask = 0 */
(PID.TID 0000.0001)                   F
(PID.TID 0000.0001)     ;
(PID.TID 0000.0001)  diagCG_maxIters = /* max number of iters in diag_cg2d */
(PID.TID 0000.0001)                    1000
(PID.TID 0000.0001)     ;
(PID.TID 0000.0001)  diagCG_resTarget = /* residual target for diag_cg2d */
(PID.TID 0000.0001)                 9.999999999999999E-12
(PID.TID 0000.0001)     ;
(PID.TID 0000.0001)  diagCG_pcOffDFac = /* preconditioner off-diagonal factor */
(PID.TID 0000.0001)                 9.611687812379854E-01
(PID.TID 0000.0001)     ;
(PID.TID 0000.0001) -----------------------------------------------------
(PID.TID 0000.0001)  DIAGNOSTICS_READPARMS: active diagnostics summary:
(PID.TID 0000.0001) -----------------------------------------------------
(PID.TID 0000.0001) Creating Output Stream: surfDiag
(PID.TID 0000.0001) Output Frequency:      86400.000000 ; Phase:           0.000000
(PID.TID 0000.0001)  Averaging Freq.:      86400.000000 , Phase:           0.000000 , Cycle:   1
(PID.TID 0000.0001)  missing value: -9.990000000000E+02
(PID.TID 0000.0001)  Levels:    will be set later
(PID.TID 0000.0001)  Fields:    SHIfwFlx SHI_mass SHIRshel ETAN     SHIuStar SHIForcT
(PID.TID 0000.0001) Creating Output Stream: dynDiag
(PID.TID 0000.0001) Output Frequency:    2592000.000000 ; Phase:           0.000000
(PID.TID 0000.0001)  Averaging Freq.:    2592000.000000 , Phase:           0.000000 , Cycle:   1
(PID.TID 0000.0001)  missing value: -9.990000000000E+02
(PID.TID 0000.0001)  Levels:    will be set later
(PID.TID 0000.0001)  Fields:    UVEL     VVEL     WVEL     THETA    SALT
(PID.TID 0000.0001) Creating Output Stream: SHICE_fwFluxtave
(PID.TID 0000.0001) Output Frequency:      86400.000000 ; Phase:           0.000000
(PID.TID 0000.0001)  Averaging Freq.:      86400.000000 , Phase:           0.000000 , Cycle:   1
(PID.TID 0000.0001)  missing value: -9.990000000000E+02
(PID.TID 0000.0001)  Levels:    will be set later
(PID.TID 0000.0001)  Fields:    SHIfwFlx
(PID.TID 0000.0001) Creating Output Stream: SHICE_mass
(PID.TID 0000.0001) Output Frequency:     -86400.000000 ; Phase:           0.000000
(PID.TID 0000.0001)  Averaging Freq.:          0.000000 , Phase:           0.000000 , Cycle:   1
(PID.TID 0000.0001)  missing value: -9.990000000000E+02
(PID.TID 0000.0001)  Levels:    will be set later
(PID.TID 0000.0001)  Fields:    SHI_mass
(PID.TID 0000.0001) -----------------------------------------------------
(PID.TID 0000.0001)  DIAGNOSTICS_READPARMS: statistics diags. summary:
(PID.TID 0000.0001) -----------------------------------------------------
(PID.TID 0000.0001) 
(PID.TID 0000.0001) SET_PARMS: done
(PID.TID 0000.0001) Enter INI_VERTICAL_GRID: setInterFDr=    T ; setCenterDr=    F
(PID.TID 0000.0001) %MON XC_max                       =   6.0500000000000E+04
(PID.TID 0000.0001) %MON XC_min                       =  -5.0000000000000E+02
(PID.TID 0000.0001) %MON XC_mean                      =   3.0000000000000E+04
(PID.TID 0000.0001) %MON XC_sd                        =   1.7895530168173E+04
(PID.TID 0000.0001) %MON XG_max                       =   6.0000000000000E+04
(PID.TID 0000.0001) %MON XG_min                       =  -1.0000000000000E+03
(PID.TID 0000.0001) %MON XG_mean                      =   2.9500000000000E+04
(PID.TID 0000.0001) %MON XG_sd                        =   1.7895530168173E+04
(PID.TID 0000.0001) %MON DXC_max                      =   1.0000000000000E+03
(PID.TID 0000.0001) %MON DXC_min                      =   1.0000000000000E+03
(PID.TID 0000.0001) %MON DXC_mean                     =   1.0000000000000E+03
(PID.TID 0000.0001) %MON DXC_sd                       =   0.0000000000000E+00
(PID.TID 0000.0001) %MON DXF_max                      =   1.0000000000000E+03
(PID.TID 0000.0001) %MON DXF_min                      =   1.0000000000000E+03
(PID.TID 0000.0001) %MON DXF_mean                     =   1.0000000000000E+03
(PID.TID 0000.0001) %MON DXF_sd                       =   0.0000000000000E+00
(PID.TID 0000.0001) %MON DXG_max                      =   1.0000000000000E+03
(PID.TID 0000.0001) %MON DXG_min                      =   1.0000000000000E+03
(PID.TID 0000.0001) %MON DXG_mean                     =   1.0000000000000E+03
(PID.TID 0000.0001) %MON DXG_sd                       =   0.0000000000000E+00
(PID.TID 0000.0001) %MON DXV_max                      =   1.0000000000000E+03
(PID.TID 0000.0001) %MON DXV_min                      =   1.0000000000000E+03
(PID.TID 0000.0001) %MON DXV_mean                     =   1.0000000000000E+03
(PID.TID 0000.0001) %MON DXV_sd                       =   0.0000000000000E+00
(PID.TID 0000.0001) %MON YC_max                       =   9.9500000000000E+04
(PID.TID 0000.0001) %MON YC_min                       =  -1.5000000000000E+03
(PID.TID 0000.0001) %MON YC_mean                      =   4.9000000000000E+04
(PID.TID 0000.0001) %MON YC_sd                        =   2.9443448620477E+04
(PID.TID 0000.0001) %MON YG_max                       =   9.9000000000000E+04
(PID.TID 0000.0001) %MON YG_min                       =  -2.0000000000000E+03
(PID.TID 0000.0001) %MON YG_mean                      =   4.8500000000000E+04
(PID.TID 0000.0001) %MON YG_sd                        =   2.9443448620477E+04
(PID.TID 0000.0001) %MON DYC_max                      =   1.0000000000000E+03
(PID.TID 0000.0001) %MON DYC_min                      =   1.0000000000000E+03
(PID.TID 0000.0001) %MON DYC_mean                     =   1.0000000000000E+03
(PID.TID 0000.0001) %MON DYC_sd                       =   0.0000000000000E+00
(PID.TID 0000.0001) %MON DYF_max                      =   1.0000000000000E+03
(PID.TID 0000.0001) %MON DYF_min                      =   1.0000000000000E+03
(PID.TID 0000.0001) %MON DYF_mean                     =   1.0000000000000E+03
(PID.TID 0000.0001) %MON DYF_sd                       =   0.0000000000000E+00
(PID.TID 0000.0001) %MON DYG_max                      =   1.0000000000000E+03
(PID.TID 0000.0001) %MON DYG_min                      =   1.0000000000000E+03
(PID.TID 0000.0001) %MON DYG_mean                     =   1.0000000000000E+03
(PID.TID 0000.0001) %MON DYG_sd                       =   0.0000000000000E+00
(PID.TID 0000.0001) %MON DYU_max                      =   1.0000000000000E+03
(PID.TID 0000.0001) %MON DYU_min                      =   1.0000000000000E+03
(PID.TID 0000.0001) %MON DYU_mean                     =   1.0000000000000E+03
(PID.TID 0000.0001) %MON DYU_sd                       =   0.0000000000000E+00
(PID.TID 0000.0001) %MON RA_max                       =   1.0000000000000E+06
(PID.TID 0000.0001) %MON RA_min                       =   1.0000000000000E+06
(PID.TID 0000.0001) %MON RA_mean                      =   1.0000000000000E+06
(PID.TID 0000.0001) %MON RA_sd                        =   0.0000000000000E+00
(PID.TID 0000.0001) %MON RAW_max                      =   1.0000000000000E+06
(PID.TID 0000.0001) %MON RAW_min                      =   1.0000000000000E+06
(PID.TID 0000.0001) %MON RAW_mean                     =   1.0000000000000E+06
(PID.TID 0000.0001) %MON RAW_sd                       =   0.0000000000000E+00
(PID.TID 0000.0001) %MON RAS_max                      =   1.0000000000000E+06
(PID.TID 0000.0001) %MON RAS_min                      =   1.0000000000000E+06
(PID.TID 0000.0001) %MON RAS_mean                     =   1.0000000000000E+06
(PID.TID 0000.0001) %MON RAS_sd                       =   0.0000000000000E+00
(PID.TID 0000.0001) %MON RAZ_max                      =   1.0000000000000E+06
(PID.TID 0000.0001) %MON RAZ_min                      =   1.0000000000000E+06
(PID.TID 0000.0001) %MON RAZ_mean                     =   1.0000000000000E+06
(PID.TID 0000.0001) %MON RAZ_sd                       =   0.0000000000000E+00
(PID.TID 0000.0001) %MON AngleCS_max                  =   1.0000000000000E+00
(PID.TID 0000.0001) %MON AngleCS_min                  =   1.0000000000000E+00
(PID.TID 0000.0001) %MON AngleCS_mean                 =   1.0000000000000E+00
(PID.TID 0000.0001) %MON AngleCS_sd                   =   0.0000000000000E+00
(PID.TID 0000.0001) %MON AngleSN_max                  =   0.0000000000000E+00
(PID.TID 0000.0001) %MON AngleSN_min                  =   0.0000000000000E+00
(PID.TID 0000.0001) %MON AngleSN_mean                 =   0.0000000000000E+00
(PID.TID 0000.0001) %MON AngleSN_sd                   =   0.0000000000000E+00
(PID.TID 0000.0001) GAD_INIT_FIXED: GAD_OlMinSize=  2  0  1
(PID.TID 0000.0001) 
(PID.TID 0000.0001) // ===================================
(PID.TID 0000.0001) // GAD parameters :
(PID.TID 0000.0001) // ===================================
(PID.TID 0000.0001) tempAdvScheme =   /* Temp. Horiz.Advection scheme selector */
(PID.TID 0000.0001)                      33
(PID.TID 0000.0001)     ;
(PID.TID 0000.0001) tempVertAdvScheme =   /* Temp. Vert. Advection scheme selector */
(PID.TID 0000.0001)                      33
(PID.TID 0000.0001)     ;
(PID.TID 0000.0001) tempMultiDimAdvec =   /* use Muti-Dim Advec method for Temp */
(PID.TID 0000.0001)                   T
(PID.TID 0000.0001)     ;
(PID.TID 0000.0001) tempSOM_Advection = /* use 2nd Order Moment Advection for Temp */
(PID.TID 0000.0001)                   F
(PID.TID 0000.0001)     ;
(PID.TID 0000.0001) AdamsBashforthGt = /* apply Adams-Bashforth extrapolation on Gt */
(PID.TID 0000.0001)                   F
(PID.TID 0000.0001)     ;
(PID.TID 0000.0001) AdamsBashforth_T = /* apply Adams-Bashforth extrapolation on Temp */
(PID.TID 0000.0001)                   F
(PID.TID 0000.0001)     ;
(PID.TID 0000.0001) saltAdvScheme =   /* Salt. Horiz.advection scheme selector */
(PID.TID 0000.0001)                      33
(PID.TID 0000.0001)     ;
(PID.TID 0000.0001) saltVertAdvScheme =   /* Salt. Vert. Advection scheme selector */
(PID.TID 0000.0001)                      33
(PID.TID 0000.0001)     ;
(PID.TID 0000.0001) saltMultiDimAdvec =   /* use Muti-Dim Advec method for Salt */
(PID.TID 0000.0001)                   T
(PID.TID 0000.0001)     ;
(PID.TID 0000.0001) saltSOM_Advection = /* use 2nd Order Moment Advection for Salt */
(PID.TID 0000.0001)                   F
(PID.TID 0000.0001)     ;
(PID.TID 0000.0001) AdamsBashforthGs = /* apply Adams-Bashforth extrapolation on Gs */
(PID.TID 0000.0001)                   F
(PID.TID 0000.0001)     ;
(PID.TID 0000.0001) AdamsBashforth_S = /* apply Adams-Bashforth extrapolation on Salt */
(PID.TID 0000.0001)                   F
(PID.TID 0000.0001)     ;
(PID.TID 0000.0001) // ===================================
(PID.TID 0000.0001) ------------------------------------------------------------
(PID.TID 0000.0001) DIAGNOSTICS_SET_LEVELS: done
(PID.TID 0000.0001)  Total Nb of available Diagnostics: ndiagt=   204
(PID.TID 0000.0001)  write list of available Diagnostics to file: available_diagnostics.log
(PID.TID 0000.0001) SETDIAG: Allocate  1 x  1 Levels for Diagnostic #   194 SHIfwFlx
(PID.TID 0000.0001) SETDIAG: Allocate  1 x  1 Levels for Diagnostic #   203 SHI_mass
(PID.TID 0000.0001) SETDIAG: Allocate  1 x  1 Levels for Diagnostic #   204 SHIRshel
(PID.TID 0000.0001) SETDIAG: Allocate  1 x  1 Levels for Diagnostic #    23 ETAN
(PID.TID 0000.0001) SETDIAG: Allocate  1 x  1 Levels for Diagnostic #   202 SHIuStar
(PID.TID 0000.0001) SETDIAG: Allocate  1 x  1 Levels for Diagnostic #   198 SHIForcT
(PID.TID 0000.0001) SETDIAG: Allocate 55 x  1 Levels for Diagnostic #    30 UVEL
(PID.TID 0000.0001) SETDIAG: Allocate 55 x  1 Levels for Diagnostic #    31 VVEL
(PID.TID 0000.0001) SETDIAG: Allocate 55 x  1 Levels for Diagnostic #    32 WVEL
(PID.TID 0000.0001) SETDIAG: Allocate 55 x  1 Levels for Diagnostic #    26 THETA
(PID.TID 0000.0001) SETDIAG: Allocate 55 x  1 Levels for Diagnostic #    27 SALT
(PID.TID 0000.0001) - NOTE - SETDIAG:  Diagnostic  #   194 SHIfwFlx is already set
(PID.TID 0000.0001) SETDIAG: Allocate  1 x  1 Levels for Diagnostic #   203 SHI_mass
(PID.TID 0000.0001)   space allocated for all diagnostics:     282 levels
(PID.TID 0000.0001)   set mate pointer for diag #    30  UVEL     , Parms: UUR     MR , mate:    31
(PID.TID 0000.0001)   set mate pointer for diag #    31  VVEL     , Parms: VVR     MR , mate:    30
(PID.TID 0000.0001) DIAGNOSTICS_SET_POINTERS: Set levels for Outp.Stream: surfDiag
(PID.TID 0000.0001)  Levels:       1.
(PID.TID 0000.0001) DIAGNOSTICS_SET_POINTERS: Set levels for Outp.Stream: dynDiag
(PID.TID 0000.0001)  Levels:       1.   2.   3.   4.   5.   6.   7.   8.   9.  10.  11.  12.  13.  14.  15.  16.  17.  18.  19.  20.
(PID.TID 0000.0001)  Levels:      21.  22.  23.  24.  25.  26.  27.  28.  29.  30.  31.  32.  33.  34.  35.  36.  37.  38.  39.  40.
(PID.TID 0000.0001)  Levels:      41.  42.  43.  44.  45.  46.  47.  48.  49.  50.  51.  52.  53.  54.  55.
(PID.TID 0000.0001) DIAGNOSTICS_SET_POINTERS: Set levels for Outp.Stream: SHICE_fwFluxtave
(PID.TID 0000.0001)  Levels:       1.
(PID.TID 0000.0001) DIAGNOSTICS_SET_POINTERS: Set levels for Outp.Stream: SHICE_mass
(PID.TID 0000.0001)  Levels:       1.
(PID.TID 0000.0001) DIAGNOSTICS_SET_POINTERS: done
(PID.TID 0000.0001) ------------------------------------------------------------
(PID.TID 0000.0001) DIAGSTATS_SET_REGIONS: define no region
(PID.TID 0000.0001) ------------------------------------------------------------
(PID.TID 0000.0001)   space allocated for all stats-diags:       0 levels
(PID.TID 0000.0001) DIAGSTATS_SET_POINTERS: done
(PID.TID 0000.0001) ------------------------------------------------------------
(PID.TID 0000.0001) %MON fCori_max                    =  -1.0000000000000E-04
(PID.TID 0000.0001) %MON fCori_min                    =  -1.0000000000000E-04
(PID.TID 0000.0001) %MON fCori_mean                   =  -1.0000000000000E-04
(PID.TID 0000.0001) %MON fCori_sd                     =   9.2157184661268E-19
(PID.TID 0000.0001) %MON fCoriG_max                   =  -1.0000000000000E-04
(PID.TID 0000.0001) %MON fCoriG_min                   =  -1.0000000000000E-04
(PID.TID 0000.0001) %MON fCoriG_mean                  =  -1.0000000000000E-04
(PID.TID 0000.0001) %MON fCoriG_sd                    =   9.2157184661268E-19
(PID.TID 0000.0001) %MON fCoriCos_max                 =   0.0000000000000E+00
(PID.TID 0000.0001) %MON fCoriCos_min                 =   0.0000000000000E+00
(PID.TID 0000.0001) %MON fCoriCos_mean                =   0.0000000000000E+00
(PID.TID 0000.0001) %MON fCoriCos_sd                  =   0.0000000000000E+00
(PID.TID 0000.0001) INI_CG2D: CG2D normalisation factor =  9.0909090909090909E-04
(PID.TID 0000.0001) 
(PID.TID 0000.0001) // =======================================================
(PID.TID 0000.0001) // Model configuration
(PID.TID 0000.0001) // =======================================================
(PID.TID 0000.0001) //
(PID.TID 0000.0001) // "Physical" paramters ( PARM01 in namelist )
(PID.TID 0000.0001) //
(PID.TID 0000.0001) buoyancyRelation = /* Type of relation to get Buoyancy */
(PID.TID 0000.0001)               'OCEANIC'
(PID.TID 0000.0001)     ;
(PID.TID 0000.0001) fluidIsAir   =  /* fluid major constituent is Air */
(PID.TID 0000.0001)                   F
(PID.TID 0000.0001)     ;
(PID.TID 0000.0001) fluidIsWater =  /* fluid major constituent is Water */
(PID.TID 0000.0001)                   T
(PID.TID 0000.0001)     ;
(PID.TID 0000.0001) usingPCoords =  /* use p (or p*) vertical coordinate */
(PID.TID 0000.0001)                   F
(PID.TID 0000.0001)     ;
(PID.TID 0000.0001) usingZCoords =  /* use z (or z*) vertical coordinate */
(PID.TID 0000.0001)                   T
(PID.TID 0000.0001)     ;
(PID.TID 0000.0001) tRef =   /* Reference temperature profile ( oC or K ) */
(PID.TID 0000.0001)    55 @ -1.900000000000000E+00              /* K =  1: 55 */
(PID.TID 0000.0001)     ;
(PID.TID 0000.0001) sRef =   /* Reference salinity profile ( psu ) */
(PID.TID 0000.0001)    55 @  3.440000000000000E+01              /* K =  1: 55 */
(PID.TID 0000.0001)     ;
(PID.TID 0000.0001) useStrainTensionVisc= /* Use StrainTension Form of Viscous Operator */
(PID.TID 0000.0001)                   F
(PID.TID 0000.0001)     ;
(PID.TID 0000.0001) useVariableVisc = /* Use variable horizontal viscosity */
(PID.TID 0000.0001)                   F
(PID.TID 0000.0001)     ;
(PID.TID 0000.0001) useHarmonicVisc = /* Use harmonic horizontal viscosity */
(PID.TID 0000.0001)                   T
(PID.TID 0000.0001)     ;
(PID.TID 0000.0001) useBiharmonicVisc= /* Use biharmonic horiz.  viscosity */
(PID.TID 0000.0001)                   F
(PID.TID 0000.0001)     ;
(PID.TID 0000.0001) useSmag3D = /* Use isotropic 3-D Smagorinsky viscosity */
(PID.TID 0000.0001)                   F
(PID.TID 0000.0001)     ;
(PID.TID 0000.0001) viscAh  =   /* Lateral harmonic viscosity ( m^2/s ) */
(PID.TID 0000.0001)                 1.000000000000000E+01
(PID.TID 0000.0001)     ;
(PID.TID 0000.0001) viscA4  =   /* Lateral biharmonic viscosity ( m^4/s ) */
(PID.TID 0000.0001)                 0.000000000000000E+00
(PID.TID 0000.0001)     ;
(PID.TID 0000.0001) no_slip_sides =  /* Viscous BCs: No-slip sides */
(PID.TID 0000.0001)                   F
(PID.TID 0000.0001)     ;
(PID.TID 0000.0001) sideDragFactor = /* side-drag scaling factor (non-dim) */
(PID.TID 0000.0001)                 2.000000000000000E+00
(PID.TID 0000.0001)     ;
(PID.TID 0000.0001) viscArNr = /* vertical profile of vertical viscosity ( m^2/s )*/
(PID.TID 0000.0001)    55 @  1.000000000000000E-03              /* K =  1: 55 */
(PID.TID 0000.0001)     ;
(PID.TID 0000.0001) no_slip_bottom =  /* Viscous BCs: No-slip bottom */
(PID.TID 0000.0001)                   F
(PID.TID 0000.0001)     ;
(PID.TID 0000.0001) bottomVisc_pCell = /* Partial-cell in bottom Visc. BC */
(PID.TID 0000.0001)                   F
(PID.TID 0000.0001)     ;
(PID.TID 0000.0001) bottomDragLinear = /* linear bottom-drag coefficient ( m/s ) */
(PID.TID 0000.0001)                 0.000000000000000E+00
(PID.TID 0000.0001)     ;
(PID.TID 0000.0001) bottomDragQuadratic = /* quadratic bottom-drag coefficient (-) */
(PID.TID 0000.0001)                 2.500000000000000E-03
(PID.TID 0000.0001)     ;
(PID.TID 0000.0001) selectBotDragQuadr = /* select quadratic bottom drag options */
(PID.TID 0000.0001)                       0
(PID.TID 0000.0001)     ;
(PID.TID 0000.0001) diffKhT =   /* Laplacian diffusion of heat laterally ( m^2/s ) */
(PID.TID 0000.0001)                 1.000000000000000E+01
(PID.TID 0000.0001)     ;
(PID.TID 0000.0001) diffK4T =   /* Biharmonic diffusion of heat laterally ( m^4/s ) */
(PID.TID 0000.0001)                 0.000000000000000E+00
(PID.TID 0000.0001)     ;
(PID.TID 0000.0001) diffKhS =   /* Laplacian diffusion of salt laterally ( m^2/s ) */
(PID.TID 0000.0001)                 1.000000000000000E+01
(PID.TID 0000.0001)     ;
(PID.TID 0000.0001) diffK4S =   /* Biharmonic diffusion of salt laterally ( m^4/s ) */
(PID.TID 0000.0001)                 0.000000000000000E+00
(PID.TID 0000.0001)     ;
(PID.TID 0000.0001) diffKrNrT = /* vertical profile of vertical diffusion of Temp ( m^2/s )*/
(PID.TID 0000.0001)    55 @  5.000000000000000E-05              /* K =  1: 55 */
(PID.TID 0000.0001)     ;
(PID.TID 0000.0001) diffKrNrS = /* vertical profile of vertical diffusion of Salt ( m^2/s )*/
(PID.TID 0000.0001)    55 @  5.000000000000000E-05              /* K =  1: 55 */
(PID.TID 0000.0001)     ;
(PID.TID 0000.0001) diffKrBL79surf = /* Surface diffusion for Bryan and Lewis 79 ( m^2/s ) */
(PID.TID 0000.0001)                 0.000000000000000E+00
(PID.TID 0000.0001)     ;
(PID.TID 0000.0001) diffKrBL79deep = /* Deep diffusion for Bryan and Lewis 1979 ( m^2/s ) */
(PID.TID 0000.0001)                 0.000000000000000E+00
(PID.TID 0000.0001)     ;
(PID.TID 0000.0001) diffKrBL79scl = /* Depth scale for Bryan and Lewis 1979 ( m ) */
(PID.TID 0000.0001)                 2.000000000000000E+02
(PID.TID 0000.0001)     ;
(PID.TID 0000.0001) diffKrBL79Ho = /* Turning depth for Bryan and Lewis 1979 ( m ) */
(PID.TID 0000.0001)                -2.000000000000000E+03
(PID.TID 0000.0001)     ;
(PID.TID 0000.0001) ivdc_kappa = /* Implicit Vertical Diffusivity for Convection ( m^2/s) */
(PID.TID 0000.0001)                 0.000000000000000E+00
(PID.TID 0000.0001)     ;
(PID.TID 0000.0001) hMixCriteria=  /* Criteria for mixed-layer diagnostic */
(PID.TID 0000.0001)                -8.000000000000000E-01
(PID.TID 0000.0001)     ;
(PID.TID 0000.0001) dRhoSmall =  /* Parameter for mixed-layer diagnostic */
(PID.TID 0000.0001)                 1.000000000000000E-06
(PID.TID 0000.0001)     ;
(PID.TID 0000.0001) hMixSmooth=  /* Smoothing parameter for mixed-layer diagnostic */
(PID.TID 0000.0001)                 0.000000000000000E+00
(PID.TID 0000.0001)     ;
(PID.TID 0000.0001) eosType =  /* Type of Equation of State */
(PID.TID 0000.0001)               'JMD95Z'
(PID.TID 0000.0001)     ;
(PID.TID 0000.0001) eosRefP0 = /* Reference atmospheric pressure for EOS ( Pa ) */
(PID.TID 0000.0001)                 1.013250000000000E+05
(PID.TID 0000.0001)     ;
(PID.TID 0000.0001) selectP_inEOS_Zc = /* select pressure to use in EOS (0,1,2,3) */
(PID.TID 0000.0001)                       0
(PID.TID 0000.0001)     0= -g*rhoConst*z ; 1= pRef (from tRef,sRef); 2= Hyd P ; 3= Hyd+NH P
(PID.TID 0000.0001)     ;
(PID.TID 0000.0001) surf_pRef = /* Surface reference pressure ( Pa ) */
(PID.TID 0000.0001)                 1.013250000000000E+05
(PID.TID 0000.0001)     ;
(PID.TID 0000.0001) HeatCapacity_Cp =  /* Specific heat capacity ( J/kg/K ) */
(PID.TID 0000.0001)                 3.974000000000000E+03
(PID.TID 0000.0001)     ;
(PID.TID 0000.0001) celsius2K = /* 0 degree Celsius converted to Kelvin ( K ) */
(PID.TID 0000.0001)                 2.731500000000000E+02
(PID.TID 0000.0001)     ;
(PID.TID 0000.0001) rhoConst  = /* Reference density (Boussinesq)  ( kg/m^3 ) */
(PID.TID 0000.0001)                 1.000000000000000E+03
(PID.TID 0000.0001)     ;
(PID.TID 0000.0001) rhoFacC = /* normalized Reference density @ cell-Center (-) */
(PID.TID 0000.0001)    55 @  1.000000000000000E+00              /* K =  1: 55 */
(PID.TID 0000.0001)     ;
(PID.TID 0000.0001) rhoFacF = /* normalized Reference density @ W-Interface (-) */
(PID.TID 0000.0001)    56 @  1.000000000000000E+00              /* K =  1: 56 */
(PID.TID 0000.0001)     ;
(PID.TID 0000.0001) rhoConstFresh = /* Fresh-water reference density ( kg/m^3 ) */
(PID.TID 0000.0001)                 1.000000000000000E+03
(PID.TID 0000.0001)     ;
(PID.TID 0000.0001) gravity =   /* Gravitational acceleration ( m/s^2 ) */
(PID.TID 0000.0001)                 9.810000000000000E+00
(PID.TID 0000.0001)     ;
(PID.TID 0000.0001) gBaro =   /* Barotropic gravity ( m/s^2 ) */
(PID.TID 0000.0001)                 9.810000000000000E+00
(PID.TID 0000.0001)     ;
(PID.TID 0000.0001) gravFacC = /* gravity factor (vs surf.) @ cell-Center (-) */
(PID.TID 0000.0001)    55 @  1.000000000000000E+00              /* K =  1: 55 */
(PID.TID 0000.0001)     ;
(PID.TID 0000.0001) gravFacF = /* gravity factor (vs surf.) @ W-Interface (-) */
(PID.TID 0000.0001)    56 @  1.000000000000000E+00              /* K =  1: 56 */
(PID.TID 0000.0001)     ;
(PID.TID 0000.0001) rotationPeriod =   /* Rotation Period ( s ) */
(PID.TID 0000.0001)                 8.616400000000000E+04
(PID.TID 0000.0001)     ;
(PID.TID 0000.0001) omega =   /* Angular velocity ( rad/s ) */
(PID.TID 0000.0001)                 7.292123516990375E-05
(PID.TID 0000.0001)     ;
(PID.TID 0000.0001) f0 =   /* Reference coriolis parameter ( 1/s ) */
(PID.TID 0000.0001)                -1.000000000000000E-04
(PID.TID 0000.0001)     ;
(PID.TID 0000.0001) beta =   /* Beta ( 1/(m.s) ) */
(PID.TID 0000.0001)                 9.999999999999999E-12
(PID.TID 0000.0001)     ;
(PID.TID 0000.0001) fPrime =   /* Second coriolis parameter ( 1/s ) */
(PID.TID 0000.0001)                 0.000000000000000E+00
(PID.TID 0000.0001)     ;
(PID.TID 0000.0001) rigidLid =   /* Rigid lid on/off flag */
(PID.TID 0000.0001)                   F
(PID.TID 0000.0001)     ;
(PID.TID 0000.0001) implicitFreeSurface =   /* Implicit free surface on/off flag */
(PID.TID 0000.0001)                   T
(PID.TID 0000.0001)     ;
(PID.TID 0000.0001) freeSurfFac =   /* Implicit free surface factor */
(PID.TID 0000.0001)                 1.000000000000000E+00
(PID.TID 0000.0001)     ;
(PID.TID 0000.0001) implicSurfPress =  /* Surface Pressure implicit factor (0-1)*/
(PID.TID 0000.0001)                 1.000000000000000E+00
(PID.TID 0000.0001)     ;
(PID.TID 0000.0001) implicDiv2DFlow =  /* Barot. Flow Div. implicit factor (0-1)*/
(PID.TID 0000.0001)                 1.000000000000000E+00
(PID.TID 0000.0001)     ;
(PID.TID 0000.0001) uniformLin_PhiSurf = /* use uniform Bo_surf on/off flag*/
(PID.TID 0000.0001)                   T
(PID.TID 0000.0001)     ;
(PID.TID 0000.0001) uniformFreeSurfLev = /* free-surface level-index is uniform */
(PID.TID 0000.0001)                   F
(PID.TID 0000.0001)     ;
(PID.TID 0000.0001) hFacMin =   /* minimum partial cell factor (hFac) */
(PID.TID 0000.0001)                 2.000000000000000E-01
(PID.TID 0000.0001)     ;
(PID.TID 0000.0001) hFacMinDr = /* minimum partial cell thickness ( m) */
(PID.TID 0000.0001)                 0.000000000000000E+00
(PID.TID 0000.0001)     ;
(PID.TID 0000.0001) exactConserv =  /* Exact Volume Conservation on/off flag*/
(PID.TID 0000.0001)                   T
(PID.TID 0000.0001)     ;
(PID.TID 0000.0001) linFSConserveTr = /* Tracer correction for Lin Free Surface on/off flag*/
(PID.TID 0000.0001)                   F
(PID.TID 0000.0001)     ;
(PID.TID 0000.0001) nonlinFreeSurf = /* Non-linear Free Surf. options (-1,0,1,2,3)*/
(PID.TID 0000.0001)                       4
(PID.TID 0000.0001)      -1,0= Off ; 1,2,3= On, 2=+rescale gU,gV, 3=+update cg2d solv.
(PID.TID 0000.0001)     ;
(PID.TID 0000.0001) hFacInf =   /* lower threshold for hFac (nonlinFreeSurf only)*/
(PID.TID 0000.0001)                 2.000000000000000E-01
(PID.TID 0000.0001)     ;
(PID.TID 0000.0001) hFacSup =   /* upper threshold for hFac (nonlinFreeSurf only)*/
(PID.TID 0000.0001)                 2.000000000000000E+00
(PID.TID 0000.0001)     ;
(PID.TID 0000.0001) select_rStar = /* r* Vertical coord. options (=0 r coord.; >0 uses r*)*/
(PID.TID 0000.0001)                       0
(PID.TID 0000.0001)     ;
(PID.TID 0000.0001) useRealFreshWaterFlux = /* Real Fresh Water Flux on/off flag*/
(PID.TID 0000.0001)                   T
(PID.TID 0000.0001)     ;
(PID.TID 0000.0001) temp_EvPrRn = /* Temp. of Evap/Prec/R (UNSET=use local T)(oC)*/
(PID.TID 0000.0001)                 1.234567000000000E+05
(PID.TID 0000.0001)     ;
(PID.TID 0000.0001) salt_EvPrRn = /* Salin. of Evap/Prec/R (UNSET=use local S)(psu)*/
(PID.TID 0000.0001)                 0.000000000000000E+00
(PID.TID 0000.0001)     ;
(PID.TID 0000.0001) selectAddFluid = /* option for mass source/sink of fluid (=0: off) */
(PID.TID 0000.0001)                       0
(PID.TID 0000.0001)     ;
(PID.TID 0000.0001) temp_addMass = /* Temp. of addMass array (UNSET=use local T)(oC)*/
(PID.TID 0000.0001)                 1.234567000000000E+05
(PID.TID 0000.0001)     ;
(PID.TID 0000.0001) salt_addMass = /* Salin. of addMass array (UNSET=use local S)(psu)*/
(PID.TID 0000.0001)                 0.000000000000000E+00
(PID.TID 0000.0001)     ;
(PID.TID 0000.0001) use3Dsolver = /* use 3-D pressure solver on/off flag */
(PID.TID 0000.0001)                   F
(PID.TID 0000.0001)     ;
(PID.TID 0000.0001) nonHydrostatic =  /* Non-Hydrostatic on/off flag */
(PID.TID 0000.0001)                   F
(PID.TID 0000.0001)     ;
(PID.TID 0000.0001) nh_Am2 = /* Non-Hydrostatic terms scaling factor */
(PID.TID 0000.0001)                 1.000000000000000E+00
(PID.TID 0000.0001)     ;
(PID.TID 0000.0001) implicitNHPress = /* Non-Hyd Pressure implicit factor (0-1)*/
(PID.TID 0000.0001)                 1.000000000000000E+00
(PID.TID 0000.0001)     ;
(PID.TID 0000.0001) selectNHfreeSurf = /* Non-Hyd (free-)Surface option */
(PID.TID 0000.0001)                       0
(PID.TID 0000.0001)     ;
(PID.TID 0000.0001) quasiHydrostatic = /* Quasi-Hydrostatic on/off flag */
(PID.TID 0000.0001)                   F
(PID.TID 0000.0001)     ;
(PID.TID 0000.0001) calc_wVelocity = /* vertical velocity calculation on/off flag */
(PID.TID 0000.0001)                   T
(PID.TID 0000.0001)     ;
(PID.TID 0000.0001) momStepping =  /* Momentum equation on/off flag */
(PID.TID 0000.0001)                   T
(PID.TID 0000.0001)     ;
(PID.TID 0000.0001) vectorInvariantMomentum= /* Vector-Invariant Momentum on/off */
(PID.TID 0000.0001)                   F
(PID.TID 0000.0001)     ;
(PID.TID 0000.0001) momAdvection =  /* Momentum advection on/off flag */
(PID.TID 0000.0001)                   T
(PID.TID 0000.0001)     ;
(PID.TID 0000.0001) momViscosity =  /* Momentum viscosity on/off flag */
(PID.TID 0000.0001)                   T
(PID.TID 0000.0001)     ;
(PID.TID 0000.0001) momImplVertAdv= /* Momentum implicit vert. advection on/off*/
(PID.TID 0000.0001)                   F
(PID.TID 0000.0001)     ;
(PID.TID 0000.0001) implicitViscosity = /* Implicit viscosity on/off flag */
(PID.TID 0000.0001)                   F
(PID.TID 0000.0001)     ;
(PID.TID 0000.0001) selectImplicitDrag= /* Implicit bot Drag options (0,1,2)*/
(PID.TID 0000.0001)                       0
(PID.TID 0000.0001)     0= Expl. ; 1= Impl. on provis. Vel ; 2= Fully Impl (with surf.P)
(PID.TID 0000.0001)     ;
(PID.TID 0000.0001) metricTerms =  /* metric-Terms on/off flag */
(PID.TID 0000.0001)                   F
(PID.TID 0000.0001)     ;
(PID.TID 0000.0001) useNHMTerms = /* Non-Hydrostatic Metric-Terms on/off */
(PID.TID 0000.0001)                   F
(PID.TID 0000.0001)     ;
(PID.TID 0000.0001) selectCoriMap = /* Coriolis Map options (0,1,2,3)*/
(PID.TID 0000.0001)                       0
(PID.TID 0000.0001)     0= f-Plane ; 1= Beta-Plane ; 2= Spherical ; 3= read from file
(PID.TID 0000.0001)     ;
(PID.TID 0000.0001) use3dCoriolis = /* 3-D Coriolis on/off flag */
(PID.TID 0000.0001)                   F
(PID.TID 0000.0001)     ;
(PID.TID 0000.0001) useCoriolis =  /* Coriolis on/off flag */
(PID.TID 0000.0001)                   T
(PID.TID 0000.0001)     ;
(PID.TID 0000.0001) useCDscheme =  /* CD scheme on/off flag */
(PID.TID 0000.0001)                   F
(PID.TID 0000.0001)     ;
(PID.TID 0000.0001) selectCoriScheme= /* Scheme selector for Coriolis-Term */
(PID.TID 0000.0001)                       0
(PID.TID 0000.0001)    = 0 : original discretization (simple averaging, no hFac)
(PID.TID 0000.0001)    = 1 : Wet-point averaging (Jamar & Ozer 1986)
(PID.TID 0000.0001)    = 2 : energy conserving scheme (no hFac weight)
(PID.TID 0000.0001)    = 3 : energy conserving scheme using Wet-point averaging
(PID.TID 0000.0001)     ;
(PID.TID 0000.0001) momForcing =  /* Momentum forcing on/off flag */
(PID.TID 0000.0001)                   T
(PID.TID 0000.0001)     ;
(PID.TID 0000.0001) momTidalForcing = /* Momentum Tidal forcing on/off flag */
(PID.TID 0000.0001)                   T
(PID.TID 0000.0001)     ;
(PID.TID 0000.0001) momPressureForcing =  /* Momentum pressure term on/off flag */
(PID.TID 0000.0001)                   T
(PID.TID 0000.0001)     ;
(PID.TID 0000.0001) implicitIntGravWave= /* Implicit Internal Gravity Wave flag */
(PID.TID 0000.0001)                   F
(PID.TID 0000.0001)     ;
(PID.TID 0000.0001) staggerTimeStep =    /* Stagger time stepping on/off flag */
(PID.TID 0000.0001)                   T
(PID.TID 0000.0001)     ;
(PID.TID 0000.0001) doResetHFactors = /* reset thickness factors @ each time-step */
(PID.TID 0000.0001)                   F
(PID.TID 0000.0001)     ;
(PID.TID 0000.0001) multiDimAdvection =  /* enable/disable Multi-Dim Advection */
(PID.TID 0000.0001)                   T
(PID.TID 0000.0001)     ;
(PID.TID 0000.0001) useMultiDimAdvec =   /* Multi-Dim Advection is/is-not used */
(PID.TID 0000.0001)                   T
(PID.TID 0000.0001)     ;
(PID.TID 0000.0001) implicitDiffusion = /* Implicit Diffusion on/off flag */
(PID.TID 0000.0001)                   F
(PID.TID 0000.0001)     ;
(PID.TID 0000.0001) tempStepping =  /* Temperature equation on/off flag */
(PID.TID 0000.0001)                   T
(PID.TID 0000.0001)     ;
(PID.TID 0000.0001) tempAdvection = /* Temperature advection on/off flag */
(PID.TID 0000.0001)                   T
(PID.TID 0000.0001)     ;
(PID.TID 0000.0001) tempImplVertAdv = /* Temp. implicit vert. advection on/off */
(PID.TID 0000.0001)                   F
(PID.TID 0000.0001)     ;
(PID.TID 0000.0001) tempForcing  =  /* Temperature forcing on/off flag */
(PID.TID 0000.0001)                   T
(PID.TID 0000.0001)     ;
(PID.TID 0000.0001) doThetaClimRelax = /* apply SST relaxation on/off flag */
(PID.TID 0000.0001)                   F
(PID.TID 0000.0001)     ;
(PID.TID 0000.0001) tempIsActiveTr = /* Temp. is a dynamically Active Tracer */
(PID.TID 0000.0001)                   T
(PID.TID 0000.0001)     ;
(PID.TID 0000.0001) saltStepping =  /* Salinity equation on/off flag */
(PID.TID 0000.0001)                   T
(PID.TID 0000.0001)     ;
(PID.TID 0000.0001) saltAdvection = /* Salinity advection on/off flag */
(PID.TID 0000.0001)                   T
(PID.TID 0000.0001)     ;
(PID.TID 0000.0001) saltImplVertAdv = /* Sali. implicit vert. advection on/off */
(PID.TID 0000.0001)                   F
(PID.TID 0000.0001)     ;
(PID.TID 0000.0001) saltForcing  =  /* Salinity forcing on/off flag */
(PID.TID 0000.0001)                   T
(PID.TID 0000.0001)     ;
(PID.TID 0000.0001) doSaltClimRelax = /* apply SSS relaxation on/off flag */
(PID.TID 0000.0001)                   F
(PID.TID 0000.0001)     ;
(PID.TID 0000.0001) saltIsActiveTr = /* Salt  is a dynamically Active Tracer */
(PID.TID 0000.0001)                   T
(PID.TID 0000.0001)     ;
(PID.TID 0000.0001)  readBinaryPrec = /* Precision used for reading binary files */
(PID.TID 0000.0001)                      64
(PID.TID 0000.0001)     ;
(PID.TID 0000.0001) writeBinaryPrec = /* Precision used for writing binary files */
(PID.TID 0000.0001)                      32
(PID.TID 0000.0001)     ;
(PID.TID 0000.0001)  rwSuffixType =   /* select format of mds file suffix */
(PID.TID 0000.0001)                       0
(PID.TID 0000.0001)    = 0 : myIter (I10.10) ;   = 1 : 100*myTime (100th sec) ;
(PID.TID 0000.0001)    = 2 : myTime (seconds);   = 3 : myTime/360 (10th of hr);
(PID.TID 0000.0001)    = 4 : myTime/3600 (hours)
(PID.TID 0000.0001)     ;
(PID.TID 0000.0001)  globalFiles = /* write "global" (=not per tile) files */
(PID.TID 0000.0001)                   T
(PID.TID 0000.0001)     ;
(PID.TID 0000.0001)  useSingleCpuIO = /* only master MPI process does I/O */
(PID.TID 0000.0001)                   T
(PID.TID 0000.0001)     ;
(PID.TID 0000.0001)  useSingleCpuInput = /* only master process reads input */
(PID.TID 0000.0001)                   T
(PID.TID 0000.0001)     ;
(PID.TID 0000.0001) /* debLev[*]  : level of debug & auxiliary message printing */
(PID.TID 0000.0001) debLevZero =  0 ; /* level of disabled aux. msg printing */
(PID.TID 0000.0001)    debLevA =  1 ; /* level of minimum  aux. msg printing */
(PID.TID 0000.0001)    debLevB =  2 ; /* level of low aux. print (report read-file opening)*/
(PID.TID 0000.0001)    debLevC =  3 ; /* level of moderate debug prt (most pkgs debug msg) */
(PID.TID 0000.0001)    debLevD =  4 ; /* level of enhanced debug prt (add DEBUG_STATS prt) */
(PID.TID 0000.0001)    debLevE =  5 ; /* level of extensive debug printing */
(PID.TID 0000.0001) debugLevel =  /* select debug printing level */
(PID.TID 0000.0001)                       1
(PID.TID 0000.0001)     ;
(PID.TID 0000.0001)  plotLevel =  /* select PLOT_FIELD printing level */
(PID.TID 0000.0001)                       1
(PID.TID 0000.0001)     ;
(PID.TID 0000.0001) //
(PID.TID 0000.0001) // Elliptic solver(s) paramters ( PARM02 in namelist )
(PID.TID 0000.0001) //
(PID.TID 0000.0001) cg2dMaxIters =   /* Upper limit on 2d con. grad iterations  */
(PID.TID 0000.0001)                    1000
(PID.TID 0000.0001)     ;
(PID.TID 0000.0001) cg2dChkResFreq =   /* 2d con. grad convergence test frequency */
(PID.TID 0000.0001)                       1
(PID.TID 0000.0001)     ;
(PID.TID 0000.0001) cg2dUseMinResSol= /* use cg2d last-iter(=0) / min-resid.(=1) solution */
(PID.TID 0000.0001)                       0
(PID.TID 0000.0001)     ;
(PID.TID 0000.0001) cg2dTargetResidual =   /* 2d con. grad target residual  */
(PID.TID 0000.0001)                 9.999999999999999E-12
(PID.TID 0000.0001)     ;
(PID.TID 0000.0001) cg2dTargetResWunit =   /* CG2d target residual [W units] */
(PID.TID 0000.0001)                -1.000000000000000E+00
(PID.TID 0000.0001)     ;
(PID.TID 0000.0001) cg2dPreCondFreq =   /* Freq. for updating cg2d preconditioner */
(PID.TID 0000.0001)                       1
(PID.TID 0000.0001)     ;
(PID.TID 0000.0001) useSRCGSolver =  /* use single reduction CG solver(s) */
(PID.TID 0000.0001)                   F
(PID.TID 0000.0001)     ;
(PID.TID 0000.0001) printResidualFreq = /* Freq. for printing CG residual */
(PID.TID 0000.0001)                       0
(PID.TID 0000.0001)     ;
(PID.TID 0000.0001) //
(PID.TID 0000.0001) // Time stepping paramters ( PARM03 in namelist )
(PID.TID 0000.0001) //
(PID.TID 0000.0001) deltaTMom =   /* Momentum equation timestep ( s ) */
(PID.TID 0000.0001)                 1.000000000000000E+02
(PID.TID 0000.0001)     ;
(PID.TID 0000.0001) deltaTFreeSurf = /* FreeSurface equation timestep ( s ) */
(PID.TID 0000.0001)                 1.000000000000000E+02
(PID.TID 0000.0001)     ;
(PID.TID 0000.0001) dTtracerLev =  /* Tracer equation timestep ( s ) */
(PID.TID 0000.0001)    55 @  1.000000000000000E+02              /* K =  1: 55 */
(PID.TID 0000.0001)     ;
(PID.TID 0000.0001) deltaTClock  =   /* Model clock timestep ( s ) */
(PID.TID 0000.0001)                 1.000000000000000E+02
(PID.TID 0000.0001)     ;
(PID.TID 0000.0001) cAdjFreq =   /* Convective adjustment interval ( s ) */
(PID.TID 0000.0001)                 1.000000000000000E+02
(PID.TID 0000.0001)     ;
(PID.TID 0000.0001) momForcingOutAB = /* =1: take Momentum Forcing out of Adams-Bash. stepping */
(PID.TID 0000.0001)                       0
(PID.TID 0000.0001)     ;
(PID.TID 0000.0001) tracForcingOutAB = /* =1: take T,S,pTr Forcing out of Adams-Bash. stepping */
(PID.TID 0000.0001)                       0
(PID.TID 0000.0001)     ;
(PID.TID 0000.0001) momDissip_In_AB = /* put Dissipation Tendency in Adams-Bash. stepping */
(PID.TID 0000.0001)                   T
(PID.TID 0000.0001)     ;
(PID.TID 0000.0001) doAB_onGtGs = /* apply AB on Tendencies (rather than on T,S)*/
(PID.TID 0000.0001)                   T
(PID.TID 0000.0001)     ;
(PID.TID 0000.0001) abEps =   /* Adams-Bashforth-2 stabilizing weight */
(PID.TID 0000.0001)                 1.000000000000000E-02
(PID.TID 0000.0001)     ;
(PID.TID 0000.0001) applyExchUV_early = /* Apply EXCH to U,V earlier in time-step */
(PID.TID 0000.0001)                   F
(PID.TID 0000.0001)     ;
(PID.TID 0000.0001) pickupStrictlyMatch= /* stop if pickup do not strictly match */
(PID.TID 0000.0001)                   T
(PID.TID 0000.0001)     ;
(PID.TID 0000.0001) nIter0   =   /* Run starting timestep number */
(PID.TID 0000.0001)                       0
(PID.TID 0000.0001)     ;
(PID.TID 0000.0001) nTimeSteps = /* Number of timesteps */
(PID.TID 0000.0001)                     865
(PID.TID 0000.0001)     ;
(PID.TID 0000.0001) nEndIter =   /* Run ending timestep number */
(PID.TID 0000.0001)                     865
(PID.TID 0000.0001)     ;
(PID.TID 0000.0001) baseTime =   /* Model base time ( s ) */
(PID.TID 0000.0001)                 0.000000000000000E+00
(PID.TID 0000.0001)     ;
(PID.TID 0000.0001) startTime =  /* Run start time ( s ) */
(PID.TID 0000.0001)                 0.000000000000000E+00
(PID.TID 0000.0001)     ;
(PID.TID 0000.0001) endTime  =   /* Integration ending time ( s ) */
(PID.TID 0000.0001)                 8.650000000000000E+04
(PID.TID 0000.0001)     ;
(PID.TID 0000.0001) pChkPtFreq = /* Permanent restart/pickup file interval ( s ) */
(PID.TID 0000.0001)                 8.640000000000000E+04
(PID.TID 0000.0001)     ;
(PID.TID 0000.0001) chkPtFreq  = /* Rolling restart/pickup file interval ( s ) */
(PID.TID 0000.0001)                 8.640000000000000E+05
(PID.TID 0000.0001)     ;
(PID.TID 0000.0001) pickup_write_mdsio =   /* Model IO flag. */
(PID.TID 0000.0001)                   T
(PID.TID 0000.0001)     ;
(PID.TID 0000.0001) pickup_read_mdsio =   /* Model IO flag. */
(PID.TID 0000.0001)                   T
(PID.TID 0000.0001)     ;
(PID.TID 0000.0001) writePickupAtEnd =   /* Model IO flag. */
(PID.TID 0000.0001)                   T
(PID.TID 0000.0001)     ;
(PID.TID 0000.0001) dumpFreq =   /* Model state write out interval ( s ). */
(PID.TID 0000.0001)                 8.640000000000000E+05
(PID.TID 0000.0001)     ;
(PID.TID 0000.0001) dumpInitAndLast= /* write out Initial & Last iter. model state */
(PID.TID 0000.0001)                   T
(PID.TID 0000.0001)     ;
(PID.TID 0000.0001) snapshot_mdsio =   /* Model IO flag. */
(PID.TID 0000.0001)                   T
(PID.TID 0000.0001)     ;
(PID.TID 0000.0001) monitorFreq =   /* Monitor output interval ( s ). */
(PID.TID 0000.0001)                 1.000000000000000E+02
(PID.TID 0000.0001)     ;
(PID.TID 0000.0001) monitorSelect = /* select group of variables to monitor */
(PID.TID 0000.0001)                       1
(PID.TID 0000.0001)     ;
(PID.TID 0000.0001) monitor_stdio =   /* Model IO flag. */
(PID.TID 0000.0001)                   T
(PID.TID 0000.0001)     ;
(PID.TID 0000.0001) externForcingPeriod =   /* forcing period (s) */
(PID.TID 0000.0001)                 0.000000000000000E+00
(PID.TID 0000.0001)     ;
(PID.TID 0000.0001) externForcingCycle =   /* period of the cyle (s). */
(PID.TID 0000.0001)                 0.000000000000000E+00
(PID.TID 0000.0001)     ;
(PID.TID 0000.0001) tauThetaClimRelax =   /* relaxation time scale (s) */
(PID.TID 0000.0001)                 0.000000000000000E+00
(PID.TID 0000.0001)     ;
(PID.TID 0000.0001) tauSaltClimRelax =   /* relaxation time scale (s) */
(PID.TID 0000.0001)                 0.000000000000000E+00
(PID.TID 0000.0001)     ;
(PID.TID 0000.0001) latBandClimRelax =   /* max. Lat. where relaxation */
(PID.TID 0000.0001)                 3.060000000000000E+05
(PID.TID 0000.0001)     ;
(PID.TID 0000.0001) //
(PID.TID 0000.0001) // Gridding paramters ( PARM04 in namelist )
(PID.TID 0000.0001) //
(PID.TID 0000.0001) usingCartesianGrid = /* Cartesian coordinates flag ( True/False ) */
(PID.TID 0000.0001)                   T
(PID.TID 0000.0001)     ;
(PID.TID 0000.0001) usingCylindricalGrid = /* Cylindrical coordinates flag ( True/False ) */
(PID.TID 0000.0001)                   F
(PID.TID 0000.0001)     ;
(PID.TID 0000.0001) usingSphericalPolarGrid = /* Spherical coordinates flag ( True/False ) */
(PID.TID 0000.0001)                   F
(PID.TID 0000.0001)     ;
(PID.TID 0000.0001) usingCurvilinearGrid = /* Curvilinear coordinates flag ( True/False ) */
(PID.TID 0000.0001)                   F
(PID.TID 0000.0001)     ;
(PID.TID 0000.0001) useMin4hFacEdges = /* set hFacW,S as minimum of adjacent hFacC factor */
(PID.TID 0000.0001)                   F
(PID.TID 0000.0001)     ;
(PID.TID 0000.0001) interViscAr_pCell = /* account for partial-cell in interior vert. viscosity */
(PID.TID 0000.0001)                   F
(PID.TID 0000.0001)     ;
(PID.TID 0000.0001) interDiffKr_pCell = /* account for partial-cell in interior vert. diffusion */
(PID.TID 0000.0001)                   F
(PID.TID 0000.0001)     ;
(PID.TID 0000.0001) pCellMix_select = /* option to enhance mixing near surface & bottom */
(PID.TID 0000.0001)                       0
(PID.TID 0000.0001)     ;
(PID.TID 0000.0001) selectSigmaCoord = /* Hybrid-Sigma Vert. Coordinate option */
(PID.TID 0000.0001)                       0
(PID.TID 0000.0001)     ;
(PID.TID 0000.0001) rSigmaBnd = /* r/sigma transition ( units of r ==  m ) */
(PID.TID 0000.0001)                 1.234567000000000E+05
(PID.TID 0000.0001)     ;
(PID.TID 0000.0001) rkSign =   /* index orientation relative to vertical coordinate */
(PID.TID 0000.0001)                -1.000000000000000E+00
(PID.TID 0000.0001)     ;
(PID.TID 0000.0001) gravitySign = /* gravity orientation relative to vertical coordinate */
(PID.TID 0000.0001)                -1.000000000000000E+00
(PID.TID 0000.0001)     ;
(PID.TID 0000.0001) seaLev_Z =  /* reference height of sea-level [m] */
(PID.TID 0000.0001)                 0.000000000000000E+00
(PID.TID 0000.0001)     ;
(PID.TID 0000.0001) top_Pres =  /* reference pressure at the top [Pa] */
(PID.TID 0000.0001)                 0.000000000000000E+00
(PID.TID 0000.0001)     ;
(PID.TID 0000.0001) mass2rUnit = /* convert mass per unit area [kg/m2] to r-units [m] */
(PID.TID 0000.0001)                 1.000000000000000E-03
(PID.TID 0000.0001)     ;
(PID.TID 0000.0001) rUnit2mass = /* convert r-units [m] to mass per unit area [kg/m2] */
(PID.TID 0000.0001)                 1.000000000000000E+03
(PID.TID 0000.0001)     ;
(PID.TID 0000.0001) drC =   /* C spacing ( units of r ) */
(PID.TID 0000.0001)                 1.000000000000000E+01,      /* K =  1 */
(PID.TID 0000.0001)    54 @  2.000000000000000E+01,             /* K =  2: 55 */
(PID.TID 0000.0001)                 1.000000000000000E+01       /* K = 56 */
(PID.TID 0000.0001)     ;
(PID.TID 0000.0001) drF =   /* W spacing ( units of r ) */
(PID.TID 0000.0001)    55 @  2.000000000000000E+01              /* K =  1: 55 */
(PID.TID 0000.0001)     ;
(PID.TID 0000.0001) delX = /* U spacing ( m - cartesian, degrees - spherical ) */
(PID.TID 0000.0001)    62 @  1.000000000000000E+03              /* I =  1: 62 */
(PID.TID 0000.0001)     ;
(PID.TID 0000.0001) delY = /* V spacing ( m - cartesian, degrees - spherical ) */
(PID.TID 0000.0001)   102 @  1.000000000000000E+03              /* J =  1:102 */
(PID.TID 0000.0001)     ;
(PID.TID 0000.0001) xgOrigin = /* X-axis origin of West  edge (cartesian: m, lat-lon: deg) */
(PID.TID 0000.0001)                -1.000000000000000E+03
(PID.TID 0000.0001)     ;
(PID.TID 0000.0001) ygOrigin = /* Y-axis origin of South edge (cartesian: m, lat-lon: deg) */
(PID.TID 0000.0001)                -2.000000000000000E+03
(PID.TID 0000.0001)     ;
(PID.TID 0000.0001) rSphere =  /* Radius ( ignored - cartesian, m - spherical ) */
(PID.TID 0000.0001)                 6.370000000000000E+06
(PID.TID 0000.0001)     ;
(PID.TID 0000.0001) deepAtmosphere = /* Deep/Shallow Atmosphere flag (True/False) */
(PID.TID 0000.0001)                   F
(PID.TID 0000.0001)     ;
(PID.TID 0000.0001) xC =  /* xC(:,1,:,1) : P-point X coord ( deg. or m if cartesian) */
(PID.TID 0000.0001)                -5.000000000000000E+02,      /* I =  1 */
(PID.TID 0000.0001)                 5.000000000000000E+02,      /* I =  2 */
(PID.TID 0000.0001)                 1.500000000000000E+03,      /* I =  3 */
(PID.TID 0000.0001)                 2.500000000000000E+03,      /* I =  4 */
(PID.TID 0000.0001)                 3.500000000000000E+03,      /* I =  5 */
(PID.TID 0000.0001)                 4.500000000000000E+03,      /* I =  6 */
(PID.TID 0000.0001)                 5.500000000000000E+03,      /* I =  7 */
(PID.TID 0000.0001)                 6.500000000000000E+03,      /* I =  8 */
(PID.TID 0000.0001)                 7.500000000000000E+03,      /* I =  9 */
(PID.TID 0000.0001)                 8.500000000000000E+03,      /* I = 10 */
(PID.TID 0000.0001)                 9.500000000000000E+03,      /* I = 11 */
(PID.TID 0000.0001)                 1.050000000000000E+04,      /* I = 12 */
(PID.TID 0000.0001)                 1.150000000000000E+04,      /* I = 13 */
(PID.TID 0000.0001)                 1.250000000000000E+04,      /* I = 14 */
(PID.TID 0000.0001)                 1.350000000000000E+04,      /* I = 15 */
(PID.TID 0000.0001)                 1.450000000000000E+04,      /* I = 16 */
(PID.TID 0000.0001)                 1.550000000000000E+04,      /* I = 17 */
(PID.TID 0000.0001)                 1.650000000000000E+04,      /* I = 18 */
(PID.TID 0000.0001)                 1.750000000000000E+04,      /* I = 19 */
(PID.TID 0000.0001)                 1.850000000000000E+04,      /* I = 20 */
(PID.TID 0000.0001)                 1.950000000000000E+04,      /* I = 21 */
(PID.TID 0000.0001)                 2.050000000000000E+04,      /* I = 22 */
(PID.TID 0000.0001)                 2.150000000000000E+04,      /* I = 23 */
(PID.TID 0000.0001)                 2.250000000000000E+04,      /* I = 24 */
(PID.TID 0000.0001)                 2.350000000000000E+04,      /* I = 25 */
(PID.TID 0000.0001)                 2.450000000000000E+04,      /* I = 26 */
(PID.TID 0000.0001)                 2.550000000000000E+04,      /* I = 27 */
(PID.TID 0000.0001)                 2.650000000000000E+04,      /* I = 28 */
(PID.TID 0000.0001)                 2.750000000000000E+04,      /* I = 29 */
(PID.TID 0000.0001)                 2.850000000000000E+04,      /* I = 30 */
(PID.TID 0000.0001)                 2.950000000000000E+04       /* I = 31 */
(PID.TID 0000.0001)     ;
(PID.TID 0000.0001) yC =  /* yC(1,:,1,:) : P-point Y coord ( deg. or m if cartesian) */
(PID.TID 0000.0001)                -1.500000000000000E+03,      /* J =  1 */
(PID.TID 0000.0001)                -5.000000000000000E+02,      /* J =  2 */
(PID.TID 0000.0001)                 5.000000000000000E+02,      /* J =  3 */
(PID.TID 0000.0001)                 1.500000000000000E+03,      /* J =  4 */
(PID.TID 0000.0001)                 2.500000000000000E+03,      /* J =  5 */
(PID.TID 0000.0001)                 3.500000000000000E+03,      /* J =  6 */
(PID.TID 0000.0001)                 4.500000000000000E+03,      /* J =  7 */
(PID.TID 0000.0001)                 5.500000000000000E+03,      /* J =  8 */
(PID.TID 0000.0001)                 6.500000000000000E+03,      /* J =  9 */
(PID.TID 0000.0001)                 7.500000000000000E+03,      /* J = 10 */
(PID.TID 0000.0001)                 8.500000000000000E+03,      /* J = 11 */
(PID.TID 0000.0001)                 9.500000000000000E+03,      /* J = 12 */
(PID.TID 0000.0001)                 1.050000000000000E+04,      /* J = 13 */
(PID.TID 0000.0001)                 1.150000000000000E+04,      /* J = 14 */
(PID.TID 0000.0001)                 1.250000000000000E+04,      /* J = 15 */
(PID.TID 0000.0001)                 1.350000000000000E+04,      /* J = 16 */
(PID.TID 0000.0001)                 1.450000000000000E+04       /* J = 17 */
(PID.TID 0000.0001)     ;
(PID.TID 0000.0001) rcoord = /* P-point R coordinate (  units of r ) */
(PID.TID 0000.0001)                -1.000000000000000E+01,      /* K =  1 */
(PID.TID 0000.0001)                -3.000000000000000E+01,      /* K =  2 */
(PID.TID 0000.0001)                -5.000000000000000E+01,      /* K =  3 */
(PID.TID 0000.0001)                -7.000000000000000E+01,      /* K =  4 */
(PID.TID 0000.0001)                -9.000000000000000E+01,      /* K =  5 */
(PID.TID 0000.0001)                -1.100000000000000E+02,      /* K =  6 */
(PID.TID 0000.0001)                -1.300000000000000E+02,      /* K =  7 */
(PID.TID 0000.0001)                -1.500000000000000E+02,      /* K =  8 */
(PID.TID 0000.0001)                -1.700000000000000E+02,      /* K =  9 */
(PID.TID 0000.0001)                -1.900000000000000E+02,      /* K = 10 */
(PID.TID 0000.0001)                -2.100000000000000E+02,      /* K = 11 */
(PID.TID 0000.0001)                -2.300000000000000E+02,      /* K = 12 */
(PID.TID 0000.0001)                -2.500000000000000E+02,      /* K = 13 */
(PID.TID 0000.0001)                -2.700000000000000E+02,      /* K = 14 */
(PID.TID 0000.0001)                -2.900000000000000E+02,      /* K = 15 */
(PID.TID 0000.0001)                -3.100000000000000E+02,      /* K = 16 */
(PID.TID 0000.0001)                -3.300000000000000E+02,      /* K = 17 */
(PID.TID 0000.0001)                -3.500000000000000E+02,      /* K = 18 */
(PID.TID 0000.0001)                -3.700000000000000E+02,      /* K = 19 */
(PID.TID 0000.0001)                -3.900000000000000E+02,      /* K = 20 */
(PID.TID 0000.0001)                -4.100000000000000E+02,      /* K = 21 */
(PID.TID 0000.0001)                -4.300000000000000E+02,      /* K = 22 */
(PID.TID 0000.0001)                -4.500000000000000E+02,      /* K = 23 */
(PID.TID 0000.0001)                -4.700000000000000E+02,      /* K = 24 */
(PID.TID 0000.0001)                -4.900000000000000E+02,      /* K = 25 */
(PID.TID 0000.0001)                -5.100000000000000E+02,      /* K = 26 */
(PID.TID 0000.0001)                -5.300000000000000E+02,      /* K = 27 */
(PID.TID 0000.0001)                -5.500000000000000E+02,      /* K = 28 */
(PID.TID 0000.0001)                -5.700000000000000E+02,      /* K = 29 */
(PID.TID 0000.0001)                -5.900000000000000E+02,      /* K = 30 */
(PID.TID 0000.0001)                -6.100000000000000E+02,      /* K = 31 */
(PID.TID 0000.0001)                -6.300000000000000E+02,      /* K = 32 */
(PID.TID 0000.0001)                -6.500000000000000E+02,      /* K = 33 */
(PID.TID 0000.0001)                -6.700000000000000E+02,      /* K = 34 */
(PID.TID 0000.0001)                -6.900000000000000E+02,      /* K = 35 */
(PID.TID 0000.0001)                -7.100000000000000E+02,      /* K = 36 */
(PID.TID 0000.0001)                -7.300000000000000E+02,      /* K = 37 */
(PID.TID 0000.0001)                -7.500000000000000E+02,      /* K = 38 */
(PID.TID 0000.0001)                -7.700000000000000E+02,      /* K = 39 */
(PID.TID 0000.0001)                -7.900000000000000E+02,      /* K = 40 */
(PID.TID 0000.0001)                -8.100000000000000E+02,      /* K = 41 */
(PID.TID 0000.0001)                -8.300000000000000E+02,      /* K = 42 */
(PID.TID 0000.0001)                -8.500000000000000E+02,      /* K = 43 */
(PID.TID 0000.0001)                -8.700000000000000E+02,      /* K = 44 */
(PID.TID 0000.0001)                -8.900000000000000E+02,      /* K = 45 */
(PID.TID 0000.0001)                -9.100000000000000E+02,      /* K = 46 */
(PID.TID 0000.0001)                -9.300000000000000E+02,      /* K = 47 */
(PID.TID 0000.0001)                -9.500000000000000E+02,      /* K = 48 */
(PID.TID 0000.0001)                -9.700000000000000E+02,      /* K = 49 */
(PID.TID 0000.0001)                -9.900000000000000E+02,      /* K = 50 */
(PID.TID 0000.0001)                -1.010000000000000E+03,      /* K = 51 */
(PID.TID 0000.0001)                -1.030000000000000E+03,      /* K = 52 */
(PID.TID 0000.0001)                -1.050000000000000E+03,      /* K = 53 */
(PID.TID 0000.0001)                -1.070000000000000E+03,      /* K = 54 */
(PID.TID 0000.0001)                -1.090000000000000E+03       /* K = 55 */
(PID.TID 0000.0001)     ;
(PID.TID 0000.0001) rF =   /* W-Interf. R coordinate (  units of r ) */
(PID.TID 0000.0001)                 0.000000000000000E+00,      /* K =  1 */
(PID.TID 0000.0001)                -2.000000000000000E+01,      /* K =  2 */
(PID.TID 0000.0001)                -4.000000000000000E+01,      /* K =  3 */
(PID.TID 0000.0001)                -6.000000000000000E+01,      /* K =  4 */
(PID.TID 0000.0001)                -8.000000000000000E+01,      /* K =  5 */
(PID.TID 0000.0001)                -1.000000000000000E+02,      /* K =  6 */
(PID.TID 0000.0001)                -1.200000000000000E+02,      /* K =  7 */
(PID.TID 0000.0001)                -1.400000000000000E+02,      /* K =  8 */
(PID.TID 0000.0001)                -1.600000000000000E+02,      /* K =  9 */
(PID.TID 0000.0001)                -1.800000000000000E+02,      /* K = 10 */
(PID.TID 0000.0001)                -2.000000000000000E+02,      /* K = 11 */
(PID.TID 0000.0001)                -2.200000000000000E+02,      /* K = 12 */
(PID.TID 0000.0001)                -2.400000000000000E+02,      /* K = 13 */
(PID.TID 0000.0001)                -2.600000000000000E+02,      /* K = 14 */
(PID.TID 0000.0001)                -2.800000000000000E+02,      /* K = 15 */
(PID.TID 0000.0001)                -3.000000000000000E+02,      /* K = 16 */
(PID.TID 0000.0001)                -3.200000000000000E+02,      /* K = 17 */
(PID.TID 0000.0001)                -3.400000000000000E+02,      /* K = 18 */
(PID.TID 0000.0001)                -3.600000000000000E+02,      /* K = 19 */
(PID.TID 0000.0001)                -3.800000000000000E+02,      /* K = 20 */
(PID.TID 0000.0001)                -4.000000000000000E+02,      /* K = 21 */
(PID.TID 0000.0001)                -4.200000000000000E+02,      /* K = 22 */
(PID.TID 0000.0001)                -4.400000000000000E+02,      /* K = 23 */
(PID.TID 0000.0001)                -4.600000000000000E+02,      /* K = 24 */
(PID.TID 0000.0001)                -4.800000000000000E+02,      /* K = 25 */
(PID.TID 0000.0001)                -5.000000000000000E+02,      /* K = 26 */
(PID.TID 0000.0001)                -5.200000000000000E+02,      /* K = 27 */
(PID.TID 0000.0001)                -5.400000000000000E+02,      /* K = 28 */
(PID.TID 0000.0001)                -5.600000000000000E+02,      /* K = 29 */
(PID.TID 0000.0001)                -5.800000000000000E+02,      /* K = 30 */
(PID.TID 0000.0001)                -6.000000000000000E+02,      /* K = 31 */
(PID.TID 0000.0001)                -6.200000000000000E+02,      /* K = 32 */
(PID.TID 0000.0001)                -6.400000000000000E+02,      /* K = 33 */
(PID.TID 0000.0001)                -6.600000000000000E+02,      /* K = 34 */
(PID.TID 0000.0001)                -6.800000000000000E+02,      /* K = 35 */
(PID.TID 0000.0001)                -7.000000000000000E+02,      /* K = 36 */
(PID.TID 0000.0001)                -7.200000000000000E+02,      /* K = 37 */
(PID.TID 0000.0001)                -7.400000000000000E+02,      /* K = 38 */
(PID.TID 0000.0001)                -7.600000000000000E+02,      /* K = 39 */
(PID.TID 0000.0001)                -7.800000000000000E+02,      /* K = 40 */
(PID.TID 0000.0001)                -8.000000000000000E+02,      /* K = 41 */
(PID.TID 0000.0001)                -8.200000000000000E+02,      /* K = 42 */
(PID.TID 0000.0001)                -8.400000000000000E+02,      /* K = 43 */
(PID.TID 0000.0001)                -8.600000000000000E+02,      /* K = 44 */
(PID.TID 0000.0001)                -8.800000000000000E+02,      /* K = 45 */
(PID.TID 0000.0001)                -9.000000000000000E+02,      /* K = 46 */
(PID.TID 0000.0001)                -9.200000000000000E+02,      /* K = 47 */
(PID.TID 0000.0001)                -9.400000000000000E+02,      /* K = 48 */
(PID.TID 0000.0001)                -9.600000000000000E+02,      /* K = 49 */
(PID.TID 0000.0001)                -9.800000000000000E+02,      /* K = 50 */
(PID.TID 0000.0001)                -1.000000000000000E+03,      /* K = 51 */
(PID.TID 0000.0001)                -1.020000000000000E+03,      /* K = 52 */
(PID.TID 0000.0001)                -1.040000000000000E+03,      /* K = 53 */
(PID.TID 0000.0001)                -1.060000000000000E+03,      /* K = 54 */
(PID.TID 0000.0001)                -1.080000000000000E+03,      /* K = 55 */
(PID.TID 0000.0001)                -1.100000000000000E+03       /* K = 56 */
(PID.TID 0000.0001)     ;
(PID.TID 0000.0001) deepFacC = /* deep-model grid factor @ cell-Center (-) */
(PID.TID 0000.0001)    55 @  1.000000000000000E+00              /* K =  1: 55 */
(PID.TID 0000.0001)     ;
(PID.TID 0000.0001) deepFacF = /* deep-model grid factor @ W-Interface (-) */
(PID.TID 0000.0001)    56 @  1.000000000000000E+00              /* K =  1: 56 */
(PID.TID 0000.0001)     ;
(PID.TID 0000.0001) rVel2wUnit = /* convert units: rVel -> wSpeed (=1 if z-coord)*/
(PID.TID 0000.0001)    56 @  1.000000000000000E+00              /* K =  1: 56 */
(PID.TID 0000.0001)     ;
(PID.TID 0000.0001) wUnit2rVel = /* convert units: wSpeed -> rVel (=1 if z-coord)*/
(PID.TID 0000.0001)    56 @  1.000000000000000E+00              /* K =  1: 56 */
(PID.TID 0000.0001)     ;
(PID.TID 0000.0001) dBdrRef = /* Vertical grad. of reference buoyancy [(m/s/r)^2] */
(PID.TID 0000.0001)    55 @  0.000000000000000E+00              /* K =  1: 55 */
(PID.TID 0000.0001)     ;
(PID.TID 0000.0001) rotateGrid = /* use rotated grid ( True/False ) */
(PID.TID 0000.0001)                   F
(PID.TID 0000.0001)     ;
(PID.TID 0000.0001) phiEuler = /* Euler angle, rotation about original z-coordinate [rad] */
(PID.TID 0000.0001)                 0.000000000000000E+00
(PID.TID 0000.0001)     ;
(PID.TID 0000.0001) thetaEuler = /* Euler angle, rotation about new x-coordinate [rad] */
(PID.TID 0000.0001)                 0.000000000000000E+00
(PID.TID 0000.0001)     ;
(PID.TID 0000.0001) psiEuler = /* Euler angle, rotation about new z-coordinate [rad] */
(PID.TID 0000.0001)                 0.000000000000000E+00
(PID.TID 0000.0001)     ;
(PID.TID 0000.0001) dxF =  /* dxF(:,1,:,1) ( units: m ) */
(PID.TID 0000.0001)    31 @  1.000000000000000E+03              /* I =  1: 31 */
(PID.TID 0000.0001)     ;
(PID.TID 0000.0001) dxF =  /* dxF(1,:,1,:) ( units: m ) */
(PID.TID 0000.0001)    17 @  1.000000000000000E+03              /* J =  1: 17 */
(PID.TID 0000.0001)     ;
(PID.TID 0000.0001) dyF =  /* dyF(:,1,:,1) ( units: m ) */
(PID.TID 0000.0001)    31 @  1.000000000000000E+03              /* I =  1: 31 */
(PID.TID 0000.0001)     ;
(PID.TID 0000.0001) dyF =  /* dyF(1,:,1,:) ( units: m ) */
(PID.TID 0000.0001)    17 @  1.000000000000000E+03              /* J =  1: 17 */
(PID.TID 0000.0001)     ;
(PID.TID 0000.0001) dxG =  /* dxG(:,1,:,1) ( units: m ) */
(PID.TID 0000.0001)    31 @  1.000000000000000E+03              /* I =  1: 31 */
(PID.TID 0000.0001)     ;
(PID.TID 0000.0001) dxG =  /* dxG(1,:,1,:) ( units: m ) */
(PID.TID 0000.0001)    17 @  1.000000000000000E+03              /* J =  1: 17 */
(PID.TID 0000.0001)     ;
(PID.TID 0000.0001) dyG =  /* dyG(:,1,:,1) ( units: m ) */
(PID.TID 0000.0001)    31 @  1.000000000000000E+03              /* I =  1: 31 */
(PID.TID 0000.0001)     ;
(PID.TID 0000.0001) dyG =  /* dyG(1,:,1,:) ( units: m ) */
(PID.TID 0000.0001)    17 @  1.000000000000000E+03              /* J =  1: 17 */
(PID.TID 0000.0001)     ;
(PID.TID 0000.0001) dxC =  /* dxC(:,1,:,1) ( units: m ) */
(PID.TID 0000.0001)    31 @  1.000000000000000E+03              /* I =  1: 31 */
(PID.TID 0000.0001)     ;
(PID.TID 0000.0001) dxC =  /* dxC(1,:,1,:) ( units: m ) */
(PID.TID 0000.0001)    17 @  1.000000000000000E+03              /* J =  1: 17 */
(PID.TID 0000.0001)     ;
(PID.TID 0000.0001) dyC =  /* dyC(:,1,:,1) ( units: m ) */
(PID.TID 0000.0001)    31 @  1.000000000000000E+03              /* I =  1: 31 */
(PID.TID 0000.0001)     ;
(PID.TID 0000.0001) dyC =  /* dyC(1,:,1,:) ( units: m ) */
(PID.TID 0000.0001)    17 @  1.000000000000000E+03              /* J =  1: 17 */
(PID.TID 0000.0001)     ;
(PID.TID 0000.0001) dxV =  /* dxV(:,1,:,1) ( units: m ) */
(PID.TID 0000.0001)    31 @  1.000000000000000E+03              /* I =  1: 31 */
(PID.TID 0000.0001)     ;
(PID.TID 0000.0001) dxV =  /* dxV(1,:,1,:) ( units: m ) */
(PID.TID 0000.0001)    17 @  1.000000000000000E+03              /* J =  1: 17 */
(PID.TID 0000.0001)     ;
(PID.TID 0000.0001) dyU =  /* dyU(:,1,:,1) ( units: m ) */
(PID.TID 0000.0001)    31 @  1.000000000000000E+03              /* I =  1: 31 */
(PID.TID 0000.0001)     ;
(PID.TID 0000.0001) dyU =  /* dyU(1,:,1,:) ( units: m ) */
(PID.TID 0000.0001)    17 @  1.000000000000000E+03              /* J =  1: 17 */
(PID.TID 0000.0001)     ;
(PID.TID 0000.0001) rA  =  /* rA (:,1,:,1) ( units: m^2 ) */
(PID.TID 0000.0001)    31 @  1.000000000000000E+06              /* I =  1: 31 */
(PID.TID 0000.0001)     ;
(PID.TID 0000.0001) rA  =  /* rA (1,:,1,:) ( units: m^2 ) */
(PID.TID 0000.0001)    17 @  1.000000000000000E+06              /* J =  1: 17 */
(PID.TID 0000.0001)     ;
(PID.TID 0000.0001) rAw =  /* rAw(:,1,:,1) ( units: m^2 ) */
(PID.TID 0000.0001)    31 @  1.000000000000000E+06              /* I =  1: 31 */
(PID.TID 0000.0001)     ;
(PID.TID 0000.0001) rAw =  /* rAw(1,:,1,:) ( units: m^2 ) */
(PID.TID 0000.0001)    17 @  1.000000000000000E+06              /* J =  1: 17 */
(PID.TID 0000.0001)     ;
(PID.TID 0000.0001) rAs =  /* rAs(:,1,:,1) ( units: m^2 ) */
(PID.TID 0000.0001)    31 @  1.000000000000000E+06              /* I =  1: 31 */
(PID.TID 0000.0001)     ;
(PID.TID 0000.0001) rAs =  /* rAs(1,:,1,:) ( units: m^2 ) */
(PID.TID 0000.0001)    17 @  1.000000000000000E+06              /* J =  1: 17 */
(PID.TID 0000.0001)     ;
(PID.TID 0000.0001) globalArea = /* Integrated horizontal Area (m^2) */
(PID.TID 0000.0001)                 5.940000000000000E+09
(PID.TID 0000.0001)     ;
(PID.TID 0000.0001) // =======================================================
(PID.TID 0000.0001) // End of Model config. summary
(PID.TID 0000.0001) // =======================================================
(PID.TID 0000.0001) 
(PID.TID 0000.0001) == Packages configuration : Check & print summary ==
(PID.TID 0000.0001) 
(PID.TID 0000.0001) OBCS_CHECK: #define ALLOW_OBCS
(PID.TID 0000.0001) OBCS_CHECK: start summary:
(PID.TID 0000.0001) useOBCSprescribe = /* prescribe OB values */
(PID.TID 0000.0001)                   T
(PID.TID 0000.0001)     ;
(PID.TID 0000.0001) useOBCSbalance = /* balance the flow through OB */
(PID.TID 0000.0001)                   T
(PID.TID 0000.0001)     ;
(PID.TID 0000.0001) OBCSbalanceSurf = /* include surf. flux in balance */
(PID.TID 0000.0001)                   F
(PID.TID 0000.0001)     ;
(PID.TID 0000.0001) OBCS_balanceFacN = /* Northern OB Factor for balancing OB flow [-] */
(PID.TID 0000.0001)                 1.000000000000000E+00
(PID.TID 0000.0001)     ;
(PID.TID 0000.0001) OBCS_balanceFacS = /* Southern OB Factor for balancing OB flow [-] */
(PID.TID 0000.0001)                 1.000000000000000E+00
(PID.TID 0000.0001)     ;
(PID.TID 0000.0001) OBCS_balanceFacE = /* Eastern  OB Factor for balancing OB flow [-] */
(PID.TID 0000.0001)                 1.000000000000000E+00
(PID.TID 0000.0001)     ;
(PID.TID 0000.0001) OBCS_balanceFacW = /* Western  OB Factor for balancing OB flow [-] */
(PID.TID 0000.0001)                 1.000000000000000E+00
(PID.TID 0000.0001)     ;
(PID.TID 0000.0001) OBCS_uvApplyFac = /* Factor to apply to U,V 2nd column/row */
(PID.TID 0000.0001)                 1.000000000000000E+00
(PID.TID 0000.0001)     ;
(PID.TID 0000.0001) OBCS_u1_adv_T = /* Temp uses upwind adv-scheme @ OB */
(PID.TID 0000.0001)                       0
(PID.TID 0000.0001)     ;
(PID.TID 0000.0001) OBCS_u1_adv_S = /* Salt uses upwind adv-scheme @ OB */
(PID.TID 0000.0001)                       0
(PID.TID 0000.0001)     ;
(PID.TID 0000.0001) OBCS_monitorFreq = /* monitor output frequency [s] */
(PID.TID 0000.0001)                 1.000000000000000E+02
(PID.TID 0000.0001)     ;
(PID.TID 0000.0001) OBCS_monSelect = /* select group of variables to monitor */
(PID.TID 0000.0001)                       0
(PID.TID 0000.0001)     ;
(PID.TID 0000.0001) useOBCStides = /* apply tidal forcing through OB */
(PID.TID 0000.0001)                   F
(PID.TID 0000.0001)     ;
(PID.TID 0000.0001) tidalPeriod = /* (s) */
(PID.TID 0000.0001)    10 @  0.000000000000000E+00              /* I =  1: 10 */
(PID.TID 0000.0001)     ;
(PID.TID 0000.0001) OB_indexNone = /* null value for OB index (i.e. no OB) */
(PID.TID 0000.0001)                     -99
(PID.TID 0000.0001)     ;
(PID.TID 0000.0001) ======== Tile bi=   1 , bj=   1 ========
(PID.TID 0000.0001)  OB_Jn = /* Northern OB local indices */
(PID.TID 0000.0001)    37 @      -99                            /* I = -2: 34 */
(PID.TID 0000.0001)  OB_Js = /* Southern OB local indices */
(PID.TID 0000.0001)    37 @      -99                            /* I = -2: 34 */
(PID.TID 0000.0001)  OB_Ie = /* Eastern OB local indices */
(PID.TID 0000.0001)    23 @      -99                            /* J = -2: 20 */
(PID.TID 0000.0001)  OB_Iw = /* Western OB local indices */
(PID.TID 0000.0001)    23 @      -99                            /* J = -2: 20 */
(PID.TID 0000.0001) OBCS_CHECK: end summary.
(PID.TID 0000.0001) OBCS_CHECK: set-up OK
(PID.TID 0000.0001) OBCS_CHECK: check Inside Mask and OB locations: OK
(PID.TID 0000.0001) SHELFICE_CHECK: #define ALLOW_SHELFICE
(PID.TID 0000.0001) 
(PID.TID 0000.0001) SHELFICE_CHECK: start of SHELFICE config. summary
(PID.TID 0000.0001) SHELFICEisOn = /* package is turned on */
(PID.TID 0000.0001)                   T
(PID.TID 0000.0001)     ;
(PID.TID 0000.0001) useISOMIPTD = /* use simple isomip thermodynamics */
(PID.TID 0000.0001)                   F
(PID.TID 0000.0001)     ;
(PID.TID 0000.0001) SHELFICEconserve = /* use a conservative form of boundary conditions */
(PID.TID 0000.0001)                   T
(PID.TID 0000.0001)     ;
(PID.TID 0000.0001) SHELFICEboundaryLayer = /* use simple boundary layer scheme to suppress noise */
(PID.TID 0000.0001)                   T
(PID.TID 0000.0001)     ;
(PID.TID 0000.0001) SHI_withBL_realFWflux = /* use real FW Flux in boundary layer scheme */
(PID.TID 0000.0001)                   T
(PID.TID 0000.0001)     ;
(PID.TID 0000.0001) SHELFICEadvDiffHeatFlux = /* use adv.-diff. instead of just diff. heat flux into the ice shelf */
(PID.TID 0000.0001)                   F
(PID.TID 0000.0001)     ;
(PID.TID 0000.0001) SHELFICEMassStepping = /* step forward ice shelf mass/thickness */
(PID.TID 0000.0001)                   T
(PID.TID 0000.0001)     ;
(PID.TID 0000.0001) no_slip_shelfice = /* use no slip boundary conditions */
(PID.TID 0000.0001)                   F
(PID.TID 0000.0001)     ;
(PID.TID 0000.0001) SHELFICEdragLinear    = /* linear drag coefficient */
(PID.TID 0000.0001)                 0.000000000000000E+00
(PID.TID 0000.0001)     ;
(PID.TID 0000.0001) SHELFICEdragQuadratic = /* quadratic drag coefficient */
(PID.TID 0000.0001)                 9.700000000000000E-03
(PID.TID 0000.0001)     ;
(PID.TID 0000.0001) SHELFICEselectDragQuadr = /* select quadratic drag option */
(PID.TID 0000.0001)                       0
(PID.TID 0000.0001)     ;
(PID.TID 0000.0001) SHELFICElatentHeat      = /* latent heat of ice */
(PID.TID 0000.0001)                 3.340000000000000E+05
(PID.TID 0000.0001)     ;
(PID.TID 0000.0001) SHELFICEheatCapacity_Cp = /* heat capacity of ice shelf */
(PID.TID 0000.0001)                 2.000000000000000E+03
(PID.TID 0000.0001)     ;
(PID.TID 0000.0001) rhoShelfice   = /* density of ice shelf */
(PID.TID 0000.0001)                 9.170000000000000E+02
(PID.TID 0000.0001)     ;
(PID.TID 0000.0001) SHELFICEkappa = /* thermal conductivity of ice shelf */
(PID.TID 0000.0001)                 1.540000000000000E-06
(PID.TID 0000.0001)     ;
(PID.TID 0000.0001) SHELFICEthetaSurface = /* surface temperature above i.s. */
(PID.TID 0000.0001)                -2.000000000000000E+01
(PID.TID 0000.0001)     ;
(PID.TID 0000.0001) SHELFICEheatTransCoeff = /* heat transfer coefficient */
(PID.TID 0000.0001)                 1.350000000000000E-02
(PID.TID 0000.0001)     ;
(PID.TID 0000.0001) SHELFICEsaltTransCoeff = /* salt transfer coefficient */
(PID.TID 0000.0001)                 2.650000000000000E-04
(PID.TID 0000.0001)     ;
(PID.TID 0000.0001) SHELFICEuseGammaFrict = /* use velocity dependent exchange coefficients */
(PID.TID 0000.0001)                   T
(PID.TID 0000.0001)     ;
(PID.TID 0000.0001) SHI_withBL_uStarTopDz = /* compute uStar from top Dz averaged uVel,vVel */
(PID.TID 0000.0001)                   F
(PID.TID 0000.0001)     ;
(PID.TID 0000.0001) shiCdrag   = /* quadr. drag coefficient for uStar */
(PID.TID 0000.0001)                 9.700000000000000E-03
(PID.TID 0000.0001)     ;
(PID.TID 0000.0001) shiZetaN   = /* parameter for gammaTurb */
(PID.TID 0000.0001)                 5.200000000000000E-02
(PID.TID 0000.0001)     ;
(PID.TID 0000.0001) shiRc      = /* parameter for gammaTurb (not used) */
(PID.TID 0000.0001)                 2.000000000000000E-01
(PID.TID 0000.0001)     ;
(PID.TID 0000.0001) shiPrandtl = /* const. Prandtl No. for gammaTurb */
(PID.TID 0000.0001)                 1.380000000000000E+01
(PID.TID 0000.0001)     ;
(PID.TID 0000.0001) shiSchmidt = /* const. Schmidt No. for gammaTurb */
(PID.TID 0000.0001)                 2.432000000000000E+03
(PID.TID 0000.0001)     ;
(PID.TID 0000.0001) shiKinVisc = /* const. kin. viscosity for gammaTurb */
(PID.TID 0000.0001)                 1.950000000000000E-06
(PID.TID 0000.0001)     ;
(PID.TID 0000.0001) SHELFICEremeshFrequency = /* Frequency (in s) of Remeshing */
(PID.TID 0000.0001)                 3.600000000000000E+03
(PID.TID 0000.0001)     ;
(PID.TID 0000.0001) SHELFICEsplitThreshold = /* hFac remesh threshold above which cell splits */
(PID.TID 0000.0001)                 1.300000000000000E+00
(PID.TID 0000.0001)     ;
(PID.TID 0000.0001) SHELFICEmergeThreshold = /* hFac remesh threshold below which cell merges */
(PID.TID 0000.0001)                 2.900000000000000E-01
(PID.TID 0000.0001)     ;
(PID.TID 0000.0001) SHELFICEloadAnomalyFile = /* file name of loaded loadAnomaly field */
(PID.TID 0000.0001)               ''
(PID.TID 0000.0001)     ;
(PID.TID 0000.0001) SHELFICEmassFile = /* file name of loaded mass field */
(PID.TID 0000.0001)               'shelficemassinit.bin'
(PID.TID 0000.0001)     ;
(PID.TID 0000.0001) SHELFICEtopoFile = /* file name of loaded under-ice topography */
(PID.TID 0000.0001)               'shelftopo.round.bin'
(PID.TID 0000.0001)     ;
(PID.TID 0000.0001) SHELFICEMassDynTendFile = /* file name of loaded dynamic mass tendency field */
(PID.TID 0000.0001)               'shelfice_dmdt.bin'
(PID.TID 0000.0001)     ;
(PID.TID 0000.0001) SHELFICEwriteState  = /* do simple standard output */
(PID.TID 0000.0001)                   T
(PID.TID 0000.0001)     ;
(PID.TID 0000.0001) SHELFICE_dump_mdsio = /* use mdsio for snapshots */
(PID.TID 0000.0001)                   T
(PID.TID 0000.0001)     ;
(PID.TID 0000.0001) SHELFICE_tave_mdsio = /* use mdsio for time averages */
(PID.TID 0000.0001)                   T
(PID.TID 0000.0001)     ;
(PID.TID 0000.0001) SHELFICE_dump_mnc   = /* use netcdf for snapshots */
(PID.TID 0000.0001)                   F
(PID.TID 0000.0001)     ;
(PID.TID 0000.0001) SHELFICE_tave_mnc   = /* use netcdf for time averages */
(PID.TID 0000.0001)                   F
(PID.TID 0000.0001)     ;
(PID.TID 0000.0001) SHELFICE_dumpFreq = /* analoguous to dumpFreq */
(PID.TID 0000.0001)                 8.640000000000000E+05
(PID.TID 0000.0001)     ;
(PID.TID 0000.0001) SHELFICE_taveFreq = /* analoguous to taveFreq */
(PID.TID 0000.0001)                 0.000000000000000E+00
(PID.TID 0000.0001)     ;
(PID.TID 0000.0001) SHELFICE_CHECK: end of SHELFICE config. summary
(PID.TID 0000.0001) GAD_CHECK: #define ALLOW_GENERIC_ADVDIFF
(PID.TID 0000.0001) // =======================================================
(PID.TID 0000.0001) // Check Model config. (CONFIG_CHECK):
(PID.TID 0000.0001) // CONFIG_CHECK : Normal End
(PID.TID 0000.0001) // =======================================================
(PID.TID 0000.0001) 
(PID.TID 0000.0001) Start initial hydrostatic pressure computation
(PID.TID 0000.0001) Pressure is predetermined for buoyancyRelation OCEANIC
(PID.TID 0000.0001) 
(PID.TID 0000.0001)  OBCS_FIELDS_LOAD: Reading initial data:         0  0.000000000000E+00
(PID.TID 0000.0001) // =======================================================
(PID.TID 0000.0001) // Model current state
(PID.TID 0000.0001) // =======================================================
(PID.TID 0000.0001) 
(PID.TID 0000.0001) // =======================================================
(PID.TID 0000.0001) // Begin MONITOR dynamic field statistics
(PID.TID 0000.0001) // =======================================================
(PID.TID 0000.0001) %MON time_tsnumber                =                     0
(PID.TID 0000.0001) %MON time_secondsf                =   0.0000000000000E+00
(PID.TID 0000.0001) %MON dynstat_eta_max              =   4.9962578166613E+00
(PID.TID 0000.0001) %MON dynstat_eta_min              =  -1.4999369473725E+01
(PID.TID 0000.0001) %MON dynstat_eta_mean             =  -3.0277939863852E+00
(PID.TID 0000.0001) %MON dynstat_eta_sd               =   5.1242770367321E+00
(PID.TID 0000.0001) %MON dynstat_eta_del2             =   1.8973600552114E-01
(PID.TID 0000.0001) %MON dynstat_uvel_max             =   0.0000000000000E+00
(PID.TID 0000.0001) %MON dynstat_uvel_min             =   0.0000000000000E+00
(PID.TID 0000.0001) %MON dynstat_uvel_mean            =   0.0000000000000E+00
(PID.TID 0000.0001) %MON dynstat_uvel_sd              =   0.0000000000000E+00
(PID.TID 0000.0001) %MON dynstat_uvel_del2            =   0.0000000000000E+00
(PID.TID 0000.0001) %MON dynstat_vvel_max             =   0.0000000000000E+00
(PID.TID 0000.0001) %MON dynstat_vvel_min             =   0.0000000000000E+00
(PID.TID 0000.0001) %MON dynstat_vvel_mean            =   0.0000000000000E+00
(PID.TID 0000.0001) %MON dynstat_vvel_sd              =   0.0000000000000E+00
(PID.TID 0000.0001) %MON dynstat_vvel_del2            =   0.0000000000000E+00
(PID.TID 0000.0001) %MON dynstat_wvel_max             =  -0.0000000000000E+00
(PID.TID 0000.0001) %MON dynstat_wvel_min             =  -0.0000000000000E+00
(PID.TID 0000.0001) %MON dynstat_wvel_mean            =   0.0000000000000E+00
(PID.TID 0000.0001) %MON dynstat_wvel_sd              =   0.0000000000000E+00
(PID.TID 0000.0001) %MON dynstat_wvel_del2            =   0.0000000000000E+00
(PID.TID 0000.0001) %MON dynstat_theta_max            =   1.2000000000000E+00
(PID.TID 0000.0001) %MON dynstat_theta_min            =  -1.0000000000000E+00
(PID.TID 0000.0001) %MON dynstat_theta_mean           =   5.6549995808478E-01
(PID.TID 0000.0001) %MON dynstat_theta_sd             =   8.4907194399183E-01
(PID.TID 0000.0001) %MON dynstat_theta_del2           =   0.0000000000000E+00
(PID.TID 0000.0001) %MON dynstat_salt_max             =   3.4700000000000E+01
(PID.TID 0000.0001) %MON dynstat_salt_min             =   3.4000000000000E+01
(PID.TID 0000.0001) %MON dynstat_salt_mean            =   3.4498113623027E+01
(PID.TID 0000.0001) %MON dynstat_salt_sd              =   2.7015925490649E-01
(PID.TID 0000.0001) %MON dynstat_salt_del2            =   0.0000000000000E+00
(PID.TID 0000.0001) %MON advcfl_uvel_max              =   0.0000000000000E+00
(PID.TID 0000.0001) %MON advcfl_vvel_max              =   0.0000000000000E+00
(PID.TID 0000.0001) %MON advcfl_wvel_max              =   0.0000000000000E+00
(PID.TID 0000.0001) %MON advcfl_W_hf_max              =   0.0000000000000E+00
(PID.TID 0000.0001) %MON pe_b_mean                    =  -8.0932479910061E-01
(PID.TID 0000.0001) %MON ke_max                       =   0.0000000000000E+00
(PID.TID 0000.0001) %MON ke_mean                      =   0.0000000000000E+00
(PID.TID 0000.0001) %MON ke_vol                       =   4.6183549037209E+12
(PID.TID 0000.0001) // =======================================================
(PID.TID 0000.0001) // End MONITOR dynamic field statistics
(PID.TID 0000.0001) // =======================================================
(PID.TID 0000.0001) // =======================================================
(PID.TID 0000.0001) // Begin OBCS MONITOR field statistics
(PID.TID 0000.0001) // =======================================================
(PID.TID 0000.0001) %MON obc_N_vVel_max               =   0.0000000000000E+00
(PID.TID 0000.0001) %MON obc_N_vVel_min               =   0.0000000000000E+00
(PID.TID 0000.0001) %MON obc_N_vVel_mean              =   0.0000000000000E+00
(PID.TID 0000.0001) %MON obc_N_vVel_sd                =   0.0000000000000E+00
(PID.TID 0000.0001) %MON obc_N_vVel_Int               =   0.0000000000000E+00
(PID.TID 0000.0001) // =======================================================
(PID.TID 0000.0001) // End OBCS MONITOR field statistics
(PID.TID 0000.0001) // =======================================================
(PID.TID 0000.0001) SOLVE_FOR_PRESSURE: putPmEinXvector =    F
 cg2d: Sum(rhs),rhsMax =   4.67769092700529E+00  3.49533093279219E+02
(PID.TID 0000.0001)      cg2d_init_res =   1.89437345491335E-03
(PID.TID 0000.0001)      cg2d_iters(min,last) =      -1     100
(PID.TID 0000.0001)      cg2d_last_res =   8.42134589774005E-12
(PID.TID 0000.0001) // =======================================================
(PID.TID 0000.0001) // Begin MONITOR dynamic field statistics
(PID.TID 0000.0001) // =======================================================
(PID.TID 0000.0001) %MON time_tsnumber                =                     1
(PID.TID 0000.0001) %MON time_secondsf                =   1.0000000000000E+02
(PID.TID 0000.0001) %MON dynstat_eta_max              =   4.9957662172500E+00
(PID.TID 0000.0001) %MON dynstat_eta_min              =  -1.5019451044086E+01
(PID.TID 0000.0001) %MON dynstat_eta_mean             =  -3.0277921835561E+00
(PID.TID 0000.0001) %MON dynstat_eta_sd               =   5.1246459622806E+00
(PID.TID 0000.0001) %MON dynstat_eta_del2             =   1.8973397751024E-01
(PID.TID 0000.0001) %MON dynstat_uvel_max             =   7.0776066692169E-04
(PID.TID 0000.0001) %MON dynstat_uvel_min             =  -8.5112859561498E-04
(PID.TID 0000.0001) %MON dynstat_uvel_mean            =  -5.2988588789624E-07
(PID.TID 0000.0001) %MON dynstat_uvel_sd              =   1.1382052186971E-04
(PID.TID 0000.0001) %MON dynstat_uvel_del2            =   7.5929853447998E-09
(PID.TID 0000.0001) %MON dynstat_vvel_max             =   2.2069924942283E-03
(PID.TID 0000.0001) %MON dynstat_vvel_min             =   0.0000000000000E+00
(PID.TID 0000.0001) %MON dynstat_vvel_mean            =   2.9642222616177E-04
(PID.TID 0000.0001) %MON dynstat_vvel_sd              =   2.8428500528546E-04
(PID.TID 0000.0001) %MON dynstat_vvel_del2            =   8.4656831337711E-08
(PID.TID 0000.0001) %MON dynstat_wvel_max             =   2.0423515023497E-04
(PID.TID 0000.0001) %MON dynstat_wvel_min             =  -2.5436214957617E-04
(PID.TID 0000.0001) %MON dynstat_wvel_mean            =   5.0086185607495E-06
(PID.TID 0000.0001) %MON dynstat_wvel_sd              =   1.7337564628685E-05
(PID.TID 0000.0001) %MON dynstat_wvel_del2            =   6.1815840443982E-08
(PID.TID 0000.0001) %MON dynstat_theta_max            =   1.2000000000000E+00
(PID.TID 0000.0001) %MON dynstat_theta_min            =  -1.0000000000000E+00
(PID.TID 0000.0001) %MON dynstat_theta_mean           =   5.6550084718021E-01
(PID.TID 0000.0001) %MON dynstat_theta_sd             =   8.4907129271962E-01
(PID.TID 0000.0001) %MON dynstat_theta_del2           =   2.8872950634562E-08
(PID.TID 0000.0001) %MON dynstat_salt_max             =   3.4700000000000E+01
(PID.TID 0000.0001) %MON dynstat_salt_min             =   3.4000000000000E+01
(PID.TID 0000.0001) %MON dynstat_salt_mean            =   3.4498113890109E+01
(PID.TID 0000.0001) %MON dynstat_salt_sd              =   2.7015905031788E-01
(PID.TID 0000.0001) %MON dynstat_salt_del2            =   9.2166854944738E-09
(PID.TID 0000.0001) %MON advcfl_uvel_max              =   8.5112859561498E-05
(PID.TID 0000.0001) %MON advcfl_vvel_max              =   2.2069924942283E-04
(PID.TID 0000.0001) %MON advcfl_wvel_max              =   1.2718107478808E-03
(PID.TID 0000.0001) %MON advcfl_W_hf_max              =   5.0578815464213E-03
(PID.TID 0000.0001) %MON pe_b_mean                    =  -8.0947249061221E-01
(PID.TID 0000.0001) %MON ke_max                       =   2.2184295723908E-06
(PID.TID 0000.0001) %MON ke_mean                      =   9.0695170417026E-08
(PID.TID 0000.0001) %MON ke_vol                       =   4.6183549037209E+12
(PID.TID 0000.0001) // =======================================================
(PID.TID 0000.0001) // End MONITOR dynamic field statistics
(PID.TID 0000.0001) // =======================================================
(PID.TID 0000.0001) // =======================================================
(PID.TID 0000.0001) // Begin OBCS MONITOR field statistics
(PID.TID 0000.0001) // =======================================================
(PID.TID 0000.0001) %MON obc_N_vVel_max               =   0.0000000000000E+00
(PID.TID 0000.0001) %MON obc_N_vVel_min               =   0.0000000000000E+00
(PID.TID 0000.0001) %MON obc_N_vVel_mean              =   0.0000000000000E+00
(PID.TID 0000.0001) %MON obc_N_vVel_sd                =   0.0000000000000E+00
(PID.TID 0000.0001) %MON obc_N_vVel_Int               =   0.0000000000000E+00
(PID.TID 0000.0001) // =======================================================
(PID.TID 0000.0001) // End OBCS MONITOR field statistics
(PID.TID 0000.0001) // =======================================================
 cg2d: Sum(rhs),rhsMax =   4.67846626704950E+00  3.49531082051015E+02
(PID.TID 0000.0001)      cg2d_init_res =   1.52736569459815E-04
(PID.TID 0000.0001)      cg2d_iters(min,last) =      -1     104
(PID.TID 0000.0001)      cg2d_last_res =   9.14266126311879E-12
(PID.TID 0000.0001) // =======================================================
(PID.TID 0000.0001) // Begin MONITOR dynamic field statistics
(PID.TID 0000.0001) // =======================================================
(PID.TID 0000.0001) %MON time_tsnumber                =                     2
(PID.TID 0000.0001) %MON time_secondsf                =   2.0000000000000E+02
(PID.TID 0000.0001) %MON dynstat_eta_max              =   4.9939011580267E+00
(PID.TID 0000.0001) %MON dynstat_eta_min              =  -1.5030756063623E+01
(PID.TID 0000.0001) %MON dynstat_eta_mean             =  -3.0282766234463E+00
(PID.TID 0000.0001) %MON dynstat_eta_sd               =   5.1249319147995E+00
(PID.TID 0000.0001) %MON dynstat_eta_del2             =   1.8973402036668E-01
(PID.TID 0000.0001) %MON dynstat_uvel_max             =   8.5276994466765E-04
(PID.TID 0000.0001) %MON dynstat_uvel_min             =  -9.2615215119141E-04
(PID.TID 0000.0001) %MON dynstat_uvel_mean            =  -4.2078792661597E-06
(PID.TID 0000.0001) %MON dynstat_uvel_sd              =   1.4701645995892E-04
(PID.TID 0000.0001) %MON dynstat_uvel_del2            =   4.8982173529630E-09
(PID.TID 0000.0001) %MON dynstat_vvel_max             =   1.5973828905080E-03
(PID.TID 0000.0001) %MON dynstat_vvel_min             =   2.3781756462276E-04
(PID.TID 0000.0001) %MON dynstat_vvel_mean            =   6.0393830829352E-04
(PID.TID 0000.0001) %MON dynstat_vvel_sd              =   3.3479332634144E-04
(PID.TID 0000.0001) %MON dynstat_vvel_del2            =   7.6429761571799E-08
(PID.TID 0000.0001) %MON dynstat_wvel_max             =   2.1211571171209E-04
(PID.TID 0000.0001) %MON dynstat_wvel_min             =  -1.4787366975368E-04
(PID.TID 0000.0001) %MON dynstat_wvel_mean            =   2.9398284397839E-06
(PID.TID 0000.0001) %MON dynstat_wvel_sd              =   1.6896365515114E-05
(PID.TID 0000.0001) %MON dynstat_wvel_del2            =   5.8751340400260E-08
(PID.TID 0000.0001) %MON dynstat_theta_max            =   1.2000000000000E+00
(PID.TID 0000.0001) %MON dynstat_theta_min            =  -1.0000000000000E+00
(PID.TID 0000.0001) %MON dynstat_theta_mean           =   5.6550051860070E-01
(PID.TID 0000.0001) %MON dynstat_theta_sd             =   8.4907146684573E-01
(PID.TID 0000.0001) %MON dynstat_theta_del2           =   5.7082431829038E-08
(PID.TID 0000.0001) %MON dynstat_salt_max             =   3.4700000000000E+01
(PID.TID 0000.0001) %MON dynstat_salt_min             =   3.4000000000000E+01
(PID.TID 0000.0001) %MON dynstat_salt_mean            =   3.4498113769699E+01
(PID.TID 0000.0001) %MON dynstat_salt_sd              =   2.7015910732000E-01
(PID.TID 0000.0001) %MON dynstat_salt_del2            =   1.8222332121197E-08
(PID.TID 0000.0001) %MON advcfl_uvel_max              =   9.2615215119141E-05
(PID.TID 0000.0001) %MON advcfl_vvel_max              =   1.5973828905080E-04
(PID.TID 0000.0001) %MON advcfl_wvel_max              =   1.0605785585604E-03
(PID.TID 0000.0001) %MON advcfl_W_hf_max              =   2.3104008240476E-03
(PID.TID 0000.0001) %MON pe_b_mean                    =  -8.0966011828402E-01
(PID.TID 0000.0001) %MON ke_max                       =   1.4321713727967E-06
(PID.TID 0000.0001) %MON ke_mean                      =   2.4833430342825E-07
(PID.TID 0000.0001) %MON ke_vol                       =   4.6183549144297E+12
(PID.TID 0000.0001) // =======================================================
(PID.TID 0000.0001) // End MONITOR dynamic field statistics
(PID.TID 0000.0001) // =======================================================
(PID.TID 0000.0001) // =======================================================
(PID.TID 0000.0001) // Begin OBCS MONITOR field statistics
(PID.TID 0000.0001) // =======================================================
(PID.TID 0000.0001) %MON obc_N_vVel_max               =   4.3762366117253E-04
(PID.TID 0000.0001) %MON obc_N_vVel_min               =   4.3762366117253E-04
(PID.TID 0000.0001) %MON obc_N_vVel_mean              =   4.3762366117253E-04
(PID.TID 0000.0001) %MON obc_N_vVel_sd                =  -2.1440521477374E-21
(PID.TID 0000.0001) %MON obc_N_vVel_Int               =   2.8883161637387E+04
(PID.TID 0000.0001) // =======================================================
(PID.TID 0000.0001) // End OBCS MONITOR field statistics
(PID.TID 0000.0001) // =======================================================
 cg2d: Sum(rhs),rhsMax =   4.67938760459572E+00  3.49531058668625E+02
(PID.TID 0000.0001)      cg2d_init_res =   9.25137741540068E-05
(PID.TID 0000.0001)      cg2d_iters(min,last) =      -1     102
(PID.TID 0000.0001)      cg2d_last_res =   8.66101058495431E-12
(PID.TID 0000.0001) // =======================================================
(PID.TID 0000.0001) // Begin MONITOR dynamic field statistics
(PID.TID 0000.0001) // =======================================================
(PID.TID 0000.0001) %MON time_tsnumber                =                     3
(PID.TID 0000.0001) %MON time_secondsf                =   3.0000000000000E+02
(PID.TID 0000.0001) %MON dynstat_eta_max              =   4.9938996550740E+00
(PID.TID 0000.0001) %MON dynstat_eta_min              =  -1.5034536087708E+01
(PID.TID 0000.0001) %MON dynstat_eta_mean             =  -3.0288727839911E+00
(PID.TID 0000.0001) %MON dynstat_eta_sd               =   5.1253294778753E+00
(PID.TID 0000.0001) %MON dynstat_eta_del2             =   1.8973402824739E-01
(PID.TID 0000.0001) %MON dynstat_uvel_max             =   7.7346475356066E-04
(PID.TID 0000.0001) %MON dynstat_uvel_min             =  -8.2581231429102E-04
(PID.TID 0000.0001) %MON dynstat_uvel_mean            =  -8.7544293383834E-06
(PID.TID 0000.0001) %MON dynstat_uvel_sd              =   1.2594862612866E-04
(PID.TID 0000.0001) %MON dynstat_uvel_del2            =   4.8414287696276E-09
(PID.TID 0000.0001) %MON dynstat_vvel_max             =   1.6811651497495E-03
(PID.TID 0000.0001) %MON dynstat_vvel_min             =   1.8348632088738E-04
(PID.TID 0000.0001) %MON dynstat_vvel_mean            =   8.6481629295544E-04
(PID.TID 0000.0001) %MON dynstat_vvel_sd              =   3.5634230113598E-04
(PID.TID 0000.0001) %MON dynstat_vvel_del2            =   9.2248004955264E-08
(PID.TID 0000.0001) %MON dynstat_wvel_max             =   2.5069581950662E-04
(PID.TID 0000.0001) %MON dynstat_wvel_min             =  -9.2998470569842E-05
(PID.TID 0000.0001) %MON dynstat_wvel_mean            =   3.1503587768497E-06
(PID.TID 0000.0001) %MON dynstat_wvel_sd              =   1.8053924457583E-05
(PID.TID 0000.0001) %MON dynstat_wvel_del2            =   7.0689375087052E-08
(PID.TID 0000.0001) %MON dynstat_theta_max            =   1.2000000000000E+00
(PID.TID 0000.0001) %MON dynstat_theta_min            =  -1.0000000000000E+00
(PID.TID 0000.0001) %MON dynstat_theta_mean           =   5.6550080435326E-01
(PID.TID 0000.0001) %MON dynstat_theta_sd             =   8.4907107605613E-01
(PID.TID 0000.0001) %MON dynstat_theta_del2           =   9.1557417897968E-08
(PID.TID 0000.0001) %MON dynstat_salt_max             =   3.4700000000000E+01
(PID.TID 0000.0001) %MON dynstat_salt_min             =   3.4000000000000E+01
(PID.TID 0000.0001) %MON dynstat_salt_mean            =   3.4498113844613E+01
(PID.TID 0000.0001) %MON dynstat_salt_sd              =   2.7015898416908E-01
(PID.TID 0000.0001) %MON dynstat_salt_del2            =   2.9214633030209E-08
(PID.TID 0000.0001) %MON advcfl_uvel_max              =   8.2581231429102E-05
(PID.TID 0000.0001) %MON advcfl_vvel_max              =   1.6811651497495E-04
(PID.TID 0000.0001) %MON advcfl_wvel_max              =   1.2534790975331E-03
(PID.TID 0000.0001) %MON advcfl_W_hf_max              =   1.7074939793114E-03
(PID.TID 0000.0001) %MON pe_b_mean                    =  -8.0987668429093E-01
(PID.TID 0000.0001) %MON ke_max                       =   1.5079844668900E-06
(PID.TID 0000.0001) %MON ke_mean                      =   4.4421413544694E-07
(PID.TID 0000.0001) %MON ke_vol                       =   4.6183520368567E+12
(PID.TID 0000.0001) // =======================================================
(PID.TID 0000.0001) // End MONITOR dynamic field statistics
(PID.TID 0000.0001) // =======================================================
(PID.TID 0000.0001) // =======================================================
(PID.TID 0000.0001) // Begin OBCS MONITOR field statistics
(PID.TID 0000.0001) // =======================================================
(PID.TID 0000.0001) %MON obc_N_vVel_max               =   5.3818640782809E-04
(PID.TID 0000.0001) %MON obc_N_vVel_min               =   5.3818640782807E-04
(PID.TID 0000.0001) %MON obc_N_vVel_mean              =   5.3818640782809E-04
(PID.TID 0000.0001) %MON obc_N_vVel_sd                =  -1.1752582143153E-20
(PID.TID 0000.0001) %MON obc_N_vVel_Int               =   3.5520302916654E+04
(PID.TID 0000.0001) // =======================================================
(PID.TID 0000.0001) // End OBCS MONITOR field statistics
(PID.TID 0000.0001) // =======================================================
 cg2d: Sum(rhs),rhsMax =   4.68054086488653E+00  3.49531387865882E+02
(PID.TID 0000.0001)      cg2d_init_res =   5.21279613841119E-05
(PID.TID 0000.0001)      cg2d_iters(min,last) =      -1     100
(PID.TID 0000.0001)      cg2d_last_res =   9.65757379976864E-12
(PID.TID 0000.0001) // =======================================================
(PID.TID 0000.0001) // Begin MONITOR dynamic field statistics
(PID.TID 0000.0001) // =======================================================
(PID.TID 0000.0001) %MON time_tsnumber                =                     4
(PID.TID 0000.0001) %MON time_secondsf                =   4.0000000000000E+02
(PID.TID 0000.0001) %MON dynstat_eta_max              =   4.9944731382174E+00
(PID.TID 0000.0001) %MON dynstat_eta_min              =  -1.5037192482997E+01
(PID.TID 0000.0001) %MON dynstat_eta_mean             =  -3.0296221193829E+00
(PID.TID 0000.0001) %MON dynstat_eta_sd               =   5.1258356882542E+00
(PID.TID 0000.0001) %MON dynstat_eta_del2             =   1.8973402946819E-01
(PID.TID 0000.0001) %MON dynstat_uvel_max             =   5.3296116657897E-04
(PID.TID 0000.0001) %MON dynstat_uvel_min             =  -5.6370758992252E-04
(PID.TID 0000.0001) %MON dynstat_uvel_mean            =  -1.2756610728693E-05
(PID.TID 0000.0001) %MON dynstat_uvel_sd              =   7.9351507246865E-05
(PID.TID 0000.0001) %MON dynstat_uvel_del2            =   5.2693568825681E-09
(PID.TID 0000.0001) %MON dynstat_vvel_max             =   1.7900967330977E-03
(PID.TID 0000.0001) %MON dynstat_vvel_min             =   1.5976114691352E-04
(PID.TID 0000.0001) %MON dynstat_vvel_mean            =   1.0813787283569E-03
(PID.TID 0000.0001) %MON dynstat_vvel_sd              =   3.8146973964208E-04
(PID.TID 0000.0001) %MON dynstat_vvel_del2            =   1.1482940171884E-07
(PID.TID 0000.0001) %MON dynstat_wvel_max             =   3.1896131943504E-04
(PID.TID 0000.0001) %MON dynstat_wvel_min             =  -6.8940471476917E-05
(PID.TID 0000.0001) %MON dynstat_wvel_mean            =   3.0999380108709E-06
(PID.TID 0000.0001) %MON dynstat_wvel_sd              =   2.1933606194178E-05
(PID.TID 0000.0001) %MON dynstat_wvel_del2            =   8.6849485867313E-08
(PID.TID 0000.0001) %MON dynstat_theta_max            =   1.2000000000000E+00
(PID.TID 0000.0001) %MON dynstat_theta_min            =  -1.0000000000000E+00
(PID.TID 0000.0001) %MON dynstat_theta_mean           =   5.6550092877452E-01
(PID.TID 0000.0001) %MON dynstat_theta_sd             =   8.4907067918273E-01
(PID.TID 0000.0001) %MON dynstat_theta_del2           =   1.3400087584566E-07
(PID.TID 0000.0001) %MON dynstat_salt_max             =   3.4700000000000E+01
(PID.TID 0000.0001) %MON dynstat_salt_min             =   3.4000000000000E+01
(PID.TID 0000.0001) %MON dynstat_salt_mean            =   3.4498113866929E+01
(PID.TID 0000.0001) %MON dynstat_salt_sd              =   2.7015885923816E-01
(PID.TID 0000.0001) %MON dynstat_salt_del2            =   4.2738363390693E-08
(PID.TID 0000.0001) %MON advcfl_uvel_max              =   5.6370758992252E-05
(PID.TID 0000.0001) %MON advcfl_vvel_max              =   1.7900967330977E-04
(PID.TID 0000.0001) %MON advcfl_wvel_max              =   1.5948065971752E-03
(PID.TID 0000.0001) %MON advcfl_W_hf_max              =   1.5948065971752E-03
(PID.TID 0000.0001) %MON pe_b_mean                    =  -8.1012272990882E-01
(PID.TID 0000.0001) %MON ke_max                       =   1.7653452286432E-06
(PID.TID 0000.0001) %MON ke_mean                      =   6.5896312256170E-07
(PID.TID 0000.0001) %MON ke_vol                       =   4.6183484956631E+12
(PID.TID 0000.0001) // =======================================================
(PID.TID 0000.0001) // End MONITOR dynamic field statistics
(PID.TID 0000.0001) // =======================================================
(PID.TID 0000.0001) // =======================================================
(PID.TID 0000.0001) // Begin OBCS MONITOR field statistics
(PID.TID 0000.0001) // =======================================================
(PID.TID 0000.0001) %MON obc_N_vVel_max               =   6.7616833303668E-04
(PID.TID 0000.0001) %MON obc_N_vVel_min               =   6.7616833303667E-04
(PID.TID 0000.0001) %MON obc_N_vVel_mean              =   6.7616833303668E-04
(PID.TID 0000.0001) %MON obc_N_vVel_sd                =  -2.2764010457459E-20
(PID.TID 0000.0001) %MON obc_N_vVel_Int               =   4.4627109980421E+04
(PID.TID 0000.0001) // =======================================================
(PID.TID 0000.0001) // End OBCS MONITOR field statistics
(PID.TID 0000.0001) // =======================================================
 cg2d: Sum(rhs),rhsMax =   4.68200284065045E+00  3.49531606961633E+02
(PID.TID 0000.0001)      cg2d_init_res =   5.04916253669865E-05
(PID.TID 0000.0001)      cg2d_iters(min,last) =      -1      99
(PID.TID 0000.0001)      cg2d_last_res =   9.27574225316437E-12
(PID.TID 0000.0001) // =======================================================
(PID.TID 0000.0001) // Begin MONITOR dynamic field statistics
(PID.TID 0000.0001) // =======================================================
(PID.TID 0000.0001) %MON time_tsnumber                =                     5
(PID.TID 0000.0001) %MON time_secondsf                =   5.0000000000000E+02
(PID.TID 0000.0001) %MON dynstat_eta_max              =   4.9946429670013E+00
(PID.TID 0000.0001) %MON dynstat_eta_min              =  -1.5040543020711E+01
(PID.TID 0000.0001) %MON dynstat_eta_mean             =  -3.0305703272064E+00
(PID.TID 0000.0001) %MON dynstat_eta_sd               =   5.1264339012321E+00
(PID.TID 0000.0001) %MON dynstat_eta_del2             =   1.8973403060475E-01
(PID.TID 0000.0001) %MON dynstat_uvel_max             =   2.3449809790055E-04
(PID.TID 0000.0001) %MON dynstat_uvel_min             =  -2.4841280990184E-04
(PID.TID 0000.0001) %MON dynstat_uvel_mean            =  -1.5303777161822E-05
(PID.TID 0000.0001) %MON dynstat_uvel_sd              =   3.6763227244511E-05
(PID.TID 0000.0001) %MON dynstat_uvel_del2            =   6.1373752337929E-09
(PID.TID 0000.0001) %MON dynstat_vvel_max             =   1.9360681011609E-03
(PID.TID 0000.0001) %MON dynstat_vvel_min             =   1.6770817285749E-04
(PID.TID 0000.0001) %MON dynstat_vvel_mean            =   1.2559449709089E-03
(PID.TID 0000.0001) %MON dynstat_vvel_sd              =   3.9694721933761E-04
(PID.TID 0000.0001) %MON dynstat_vvel_del2            =   1.3965447212054E-07
(PID.TID 0000.0001) %MON dynstat_wvel_max             =   3.9151710352483E-04
(PID.TID 0000.0001) %MON dynstat_wvel_min             =  -5.0415745805753E-05
(PID.TID 0000.0001) %MON dynstat_wvel_mean            =   2.7414077974429E-06
(PID.TID 0000.0001) %MON dynstat_wvel_sd              =   2.6272215278758E-05
(PID.TID 0000.0001) %MON dynstat_wvel_del2            =   1.0370355296263E-07
(PID.TID 0000.0001) %MON dynstat_theta_max            =   1.2000000000000E+00
(PID.TID 0000.0001) %MON dynstat_theta_min            =  -1.0000000000000E+00
(PID.TID 0000.0001) %MON dynstat_theta_mean           =   5.6550093154730E-01
(PID.TID 0000.0001) %MON dynstat_theta_sd             =   8.4907033094454E-01
(PID.TID 0000.0001) %MON dynstat_theta_del2           =   1.8470256201729E-07
(PID.TID 0000.0001) %MON dynstat_salt_max             =   3.4700000000000E+01
(PID.TID 0000.0001) %MON dynstat_salt_min             =   3.4000000000000E+01
(PID.TID 0000.0001) %MON dynstat_salt_mean            =   3.4498113848421E+01
(PID.TID 0000.0001) %MON dynstat_salt_sd              =   2.7015875149842E-01
(PID.TID 0000.0001) %MON dynstat_salt_del2            =   5.8889561696975E-08
(PID.TID 0000.0001) %MON advcfl_uvel_max              =   2.4841280990184E-05
(PID.TID 0000.0001) %MON advcfl_vvel_max              =   1.9360681011609E-04
(PID.TID 0000.0001) %MON advcfl_wvel_max              =   1.9575855176242E-03
(PID.TID 0000.0001) %MON advcfl_W_hf_max              =   1.9575855176242E-03
(PID.TID 0000.0001) %MON pe_b_mean                    =  -8.1039881935363E-01
(PID.TID 0000.0001) %MON ke_max                       =   2.0754773372644E-06
(PID.TID 0000.0001) %MON ke_mean                      =   8.6561745383154E-07
(PID.TID 0000.0001) %MON ke_vol                       =   4.6183440446109E+12
(PID.TID 0000.0001) // =======================================================
(PID.TID 0000.0001) // End MONITOR dynamic field statistics
(PID.TID 0000.0001) // =======================================================
(PID.TID 0000.0001) // =======================================================
(PID.TID 0000.0001) // Begin OBCS MONITOR field statistics
(PID.TID 0000.0001) // =======================================================
(PID.TID 0000.0001) %MON obc_N_vVel_max               =   8.5536244602549E-04
(PID.TID 0000.0001) %MON obc_N_vVel_min               =   8.5536244602546E-04
(PID.TID 0000.0001) %MON obc_N_vVel_mean              =   8.5536244602549E-04
(PID.TID 0000.0001) %MON obc_N_vVel_sd                =  -6.5009778701768E-20
(PID.TID 0000.0001) %MON obc_N_vVel_Int               =   5.6453921437682E+04
(PID.TID 0000.0001) // =======================================================
(PID.TID 0000.0001) // End OBCS MONITOR field statistics
(PID.TID 0000.0001) // =======================================================
 cg2d: Sum(rhs),rhsMax =   4.68380826120525E+00  3.49531682506248E+02
(PID.TID 0000.0001)      cg2d_init_res =   4.86435977690819E-05
(PID.TID 0000.0001)      cg2d_iters(min,last) =      -1      99
(PID.TID 0000.0001)      cg2d_last_res =   9.11511902176562E-12
(PID.TID 0000.0001) // =======================================================
(PID.TID 0000.0001) // Begin MONITOR dynamic field statistics
(PID.TID 0000.0001) // =======================================================
(PID.TID 0000.0001) %MON time_tsnumber                =                     6
(PID.TID 0000.0001) %MON time_secondsf                =   6.0000000000000E+02
(PID.TID 0000.0001) %MON dynstat_eta_max              =   4.9941087196162E+00
(PID.TID 0000.0001) %MON dynstat_eta_min              =  -1.5044544732748E+01
(PID.TID 0000.0001) %MON dynstat_eta_mean             =  -3.0317395964366E+00
(PID.TID 0000.0001) %MON dynstat_eta_sd               =   5.1270924689852E+00
(PID.TID 0000.0001) %MON dynstat_eta_del2             =   1.8973403258395E-01
(PID.TID 0000.0001) %MON dynstat_uvel_max             =   7.3710032828990E-05
(PID.TID 0000.0001) %MON dynstat_uvel_min             =  -9.9102344200297E-05
(PID.TID 0000.0001) %MON dynstat_uvel_mean            =  -1.5859865106714E-05
(PID.TID 0000.0001) %MON dynstat_uvel_sd              =   3.0014222502632E-05
(PID.TID 0000.0001) %MON dynstat_uvel_del2            =   7.3837716559914E-09
(PID.TID 0000.0001) %MON dynstat_vvel_max             =   2.0184569771349E-03
(PID.TID 0000.0001) %MON dynstat_vvel_min             =   1.7854637916592E-04
(PID.TID 0000.0001) %MON dynstat_vvel_mean            =   1.3908776971993E-03
(PID.TID 0000.0001) %MON dynstat_vvel_sd              =   3.9713384078143E-04
(PID.TID 0000.0001) %MON dynstat_vvel_del2            =   1.6169808447049E-07
(PID.TID 0000.0001) %MON dynstat_wvel_max             =   4.5444866278559E-04
(PID.TID 0000.0001) %MON dynstat_wvel_min             =  -5.8137468445988E-05
(PID.TID 0000.0001) %MON dynstat_wvel_mean            =   2.0854186721379E-06
(PID.TID 0000.0001) %MON dynstat_wvel_sd              =   2.9899514543593E-05
(PID.TID 0000.0001) %MON dynstat_wvel_del2            =   1.1712516506189E-07
(PID.TID 0000.0001) %MON dynstat_theta_max            =   1.2000000000000E+00
(PID.TID 0000.0001) %MON dynstat_theta_min            =  -1.0000000000000E+00
(PID.TID 0000.0001) %MON dynstat_theta_mean           =   5.6550089098750E-01
(PID.TID 0000.0001) %MON dynstat_theta_sd             =   8.4907004363936E-01
(PID.TID 0000.0001) %MON dynstat_theta_del2           =   2.4194717345672E-07
(PID.TID 0000.0001) %MON dynstat_salt_max             =   3.4700000000000E+01
(PID.TID 0000.0001) %MON dynstat_salt_min             =   3.4000000000000E+01
(PID.TID 0000.0001) %MON dynstat_salt_mean            =   3.4498113814855E+01
(PID.TID 0000.0001) %MON dynstat_salt_sd              =   2.7015866477456E-01
(PID.TID 0000.0001) %MON dynstat_salt_del2            =   7.7124419300354E-08
(PID.TID 0000.0001) %MON advcfl_uvel_max              =   9.9102344200297E-06
(PID.TID 0000.0001) %MON advcfl_vvel_max              =   2.0184569771349E-04
(PID.TID 0000.0001) %MON advcfl_wvel_max              =   2.2722433139279E-03
(PID.TID 0000.0001) %MON advcfl_W_hf_max              =   2.2722433139279E-03
(PID.TID 0000.0001) %MON pe_b_mean                    =  -8.1070103272061E-01
(PID.TID 0000.0001) %MON ke_max                       =   2.2865080177091E-06
(PID.TID 0000.0001) %MON ke_mean                      =   1.0426861036257E-06
(PID.TID 0000.0001) %MON ke_vol                       =   4.6183384122564E+12
(PID.TID 0000.0001) // =======================================================
(PID.TID 0000.0001) // End MONITOR dynamic field statistics
(PID.TID 0000.0001) // =======================================================
(PID.TID 0000.0001) // =======================================================
(PID.TID 0000.0001) // Begin OBCS MONITOR field statistics
(PID.TID 0000.0001) // =======================================================
(PID.TID 0000.0001) %MON obc_N_vVel_max               =   1.0544433001079E-03
(PID.TID 0000.0001) %MON obc_N_vVel_min               =   1.0544433001079E-03
(PID.TID 0000.0001) %MON obc_N_vVel_mean              =   1.0544433001079E-03
(PID.TID 0000.0001) %MON obc_N_vVel_sd                =  -7.8138789384209E-20
(PID.TID 0000.0001) %MON obc_N_vVel_Int               =   6.9593257807125E+04
(PID.TID 0000.0001) // =======================================================
(PID.TID 0000.0001) // End OBCS MONITOR field statistics
(PID.TID 0000.0001) // =======================================================
 cg2d: Sum(rhs),rhsMax =   4.68593123642924E+00  3.49531637163959E+02
(PID.TID 0000.0001)      cg2d_init_res =   4.75950670444211E-05
(PID.TID 0000.0001)      cg2d_iters(min,last) =      -1      99
(PID.TID 0000.0001)      cg2d_last_res =   9.73972210622739E-12
(PID.TID 0000.0001) // =======================================================
(PID.TID 0000.0001) // Begin MONITOR dynamic field statistics
(PID.TID 0000.0001) // =======================================================
(PID.TID 0000.0001) %MON time_tsnumber                =                     7
(PID.TID 0000.0001) %MON time_secondsf                =   7.0000000000000E+02
(PID.TID 0000.0001) %MON dynstat_eta_max              =   4.9928486105242E+00
(PID.TID 0000.0001) %MON dynstat_eta_min              =  -1.5048753910400E+01
(PID.TID 0000.0001) %MON dynstat_eta_mean             =  -3.0331133642719E+00
(PID.TID 0000.0001) %MON dynstat_eta_sd               =   5.1277737096471E+00
(PID.TID 0000.0001) %MON dynstat_eta_del2             =   1.8973403553031E-01
(PID.TID 0000.0001) %MON dynstat_uvel_max             =   1.8780334121171E-04
(PID.TID 0000.0001) %MON dynstat_uvel_min             =  -1.3948443143530E-04
(PID.TID 0000.0001) %MON dynstat_uvel_mean            =  -1.4310344690196E-05
(PID.TID 0000.0001) %MON dynstat_uvel_sd              =   3.6665655957547E-05
(PID.TID 0000.0001) %MON dynstat_uvel_del2            =   8.7744070637720E-09
(PID.TID 0000.0001) %MON dynstat_vvel_max             =   2.2011156356603E-03
(PID.TID 0000.0001) %MON dynstat_vvel_min             =   1.8056625257223E-04
(PID.TID 0000.0001) %MON dynstat_vvel_mean            =   1.4852855864882E-03
(PID.TID 0000.0001) %MON dynstat_vvel_sd              =   3.8871351053225E-04
(PID.TID 0000.0001) %MON dynstat_vvel_del2            =   1.7690639547731E-07
(PID.TID 0000.0001) %MON dynstat_wvel_max             =   4.9568818330974E-04
(PID.TID 0000.0001) %MON dynstat_wvel_min             =  -6.7141037322797E-05
(PID.TID 0000.0001) %MON dynstat_wvel_mean            =   1.2517764864289E-06
(PID.TID 0000.0001) %MON dynstat_wvel_sd              =   3.2092004983163E-05
(PID.TID 0000.0001) %MON dynstat_wvel_del2            =   1.2360421187404E-07
(PID.TID 0000.0001) %MON dynstat_theta_max            =   1.2000000000000E+00
(PID.TID 0000.0001) %MON dynstat_theta_min            =  -1.0000000000000E+00
(PID.TID 0000.0001) %MON dynstat_theta_mean           =   5.6550088515282E-01
(PID.TID 0000.0001) %MON dynstat_theta_sd             =   8.4906980272277E-01
(PID.TID 0000.0001) %MON dynstat_theta_del2           =   3.0230509312110E-07
(PID.TID 0000.0001) %MON dynstat_salt_max             =   3.4700000000000E+01
(PID.TID 0000.0001) %MON dynstat_salt_min             =   3.4000000000000E+01
(PID.TID 0000.0001) %MON dynstat_salt_mean            =   3.4498113791829E+01
(PID.TID 0000.0001) %MON dynstat_salt_sd              =   2.7015859414802E-01
(PID.TID 0000.0001) %MON dynstat_salt_del2            =   9.6352321354453E-08
(PID.TID 0000.0001) %MON advcfl_uvel_max              =   1.8780334121171E-05
(PID.TID 0000.0001) %MON advcfl_vvel_max              =   2.2011156356603E-04
(PID.TID 0000.0001) %MON advcfl_wvel_max              =   2.4784409165487E-03
(PID.TID 0000.0001) %MON advcfl_W_hf_max              =   2.4784409165487E-03
(PID.TID 0000.0001) %MON pe_b_mean                    =  -8.1102095744979E-01
(PID.TID 0000.0001) %MON ke_max                       =   2.5413190885397E-06
(PID.TID 0000.0001) %MON ke_mean                      =   1.1738258545467E-06
(PID.TID 0000.0001) %MON ke_vol                       =   4.6183314667972E+12
(PID.TID 0000.0001) // =======================================================
(PID.TID 0000.0001) // End MONITOR dynamic field statistics
(PID.TID 0000.0001) // =======================================================
(PID.TID 0000.0001) // =======================================================
(PID.TID 0000.0001) // Begin OBCS MONITOR field statistics
(PID.TID 0000.0001) // =======================================================
(PID.TID 0000.0001) %MON obc_N_vVel_max               =   1.2385423334154E-03
(PID.TID 0000.0001) %MON obc_N_vVel_min               =   1.2385423334154E-03
(PID.TID 0000.0001) %MON obc_N_vVel_mean              =   1.2385423334154E-03
(PID.TID 0000.0001) %MON obc_N_vVel_sd                =  -5.9715822781428E-20
(PID.TID 0000.0001) %MON obc_N_vVel_Int               =   8.1743794005416E+04
(PID.TID 0000.0001) // =======================================================
(PID.TID 0000.0001) // End OBCS MONITOR field statistics
(PID.TID 0000.0001) // =======================================================
 cg2d: Sum(rhs),rhsMax =   4.68829294361700E+00  3.49531472775709E+02
(PID.TID 0000.0001)      cg2d_init_res =   4.79289847800312E-05
(PID.TID 0000.0001)      cg2d_iters(min,last) =      -1      99
(PID.TID 0000.0001)      cg2d_last_res =   8.47035791279441E-12
(PID.TID 0000.0001) // =======================================================
(PID.TID 0000.0001) // Begin MONITOR dynamic field statistics
(PID.TID 0000.0001) // =======================================================
(PID.TID 0000.0001) %MON time_tsnumber                =                     8
(PID.TID 0000.0001) %MON time_secondsf                =   8.0000000000000E+02
(PID.TID 0000.0001) %MON dynstat_eta_max              =   4.9910117522318E+00
(PID.TID 0000.0001) %MON dynstat_eta_min              =  -1.5052729747678E+01
(PID.TID 0000.0001) %MON dynstat_eta_mean             =  -3.0346406247896E+00
(PID.TID 0000.0001) %MON dynstat_eta_sd               =   5.1284430927934E+00
(PID.TID 0000.0001) %MON dynstat_eta_del2             =   1.8973403883409E-01
(PID.TID 0000.0001) %MON dynstat_uvel_max             =   2.0599176995129E-04
(PID.TID 0000.0001) %MON dynstat_uvel_min             =  -1.1718433146690E-04
(PID.TID 0000.0001) %MON dynstat_uvel_mean            =  -1.0913269622882E-05
(PID.TID 0000.0001) %MON dynstat_uvel_sd              =   3.1310186786203E-05
(PID.TID 0000.0001) %MON dynstat_uvel_del2            =   1.0191877029684E-08
(PID.TID 0000.0001) %MON dynstat_vvel_max             =   2.3570294997572E-03
(PID.TID 0000.0001) %MON dynstat_vvel_min             =   1.6950765264223E-04
(PID.TID 0000.0001) %MON dynstat_vvel_mean            =   1.5349780797347E-03
(PID.TID 0000.0001) %MON dynstat_vvel_sd              =   3.7928146061888E-04
(PID.TID 0000.0001) %MON dynstat_vvel_del2            =   1.8352932045847E-07
(PID.TID 0000.0001) %MON dynstat_wvel_max             =   5.0898666000021E-04
(PID.TID 0000.0001) %MON dynstat_wvel_min             =  -7.3300282392998E-05
(PID.TID 0000.0001) %MON dynstat_wvel_mean            =   3.9960198788857E-07
(PID.TID 0000.0001) %MON dynstat_wvel_sd              =   3.2450587911488E-05
(PID.TID 0000.0001) %MON dynstat_wvel_del2            =   1.2132609087912E-07
(PID.TID 0000.0001) %MON dynstat_theta_max            =   1.2000000000000E+00
(PID.TID 0000.0001) %MON dynstat_theta_min            =  -1.0000000000000E+00
(PID.TID 0000.0001) %MON dynstat_theta_mean           =   5.6550096834931E-01
(PID.TID 0000.0001) %MON dynstat_theta_sd             =   8.4906958247285E-01
(PID.TID 0000.0001) %MON dynstat_theta_del2           =   3.6143731123905E-07
(PID.TID 0000.0001) %MON dynstat_salt_max             =   3.4700000000000E+01
(PID.TID 0000.0001) %MON dynstat_salt_min             =   3.4000000000000E+01
(PID.TID 0000.0001) %MON dynstat_salt_mean            =   3.4498113797208E+01
(PID.TID 0000.0001) %MON dynstat_salt_sd              =   2.7015853106765E-01
(PID.TID 0000.0001) %MON dynstat_salt_del2            =   1.1519290272494E-07
(PID.TID 0000.0001) %MON advcfl_uvel_max              =   2.0599176995129E-05
(PID.TID 0000.0001) %MON advcfl_vvel_max              =   2.3570294997572E-04
(PID.TID 0000.0001) %MON advcfl_wvel_max              =   2.5449333000011E-03
(PID.TID 0000.0001) %MON advcfl_W_hf_max              =   2.5449333000011E-03
(PID.TID 0000.0001) %MON pe_b_mean                    =  -8.1134767559316E-01
(PID.TID 0000.0001) %MON ke_max                       =   2.8559712218236E-06
(PID.TID 0000.0001) %MON ke_mean                      =   1.2437324872742E-06
(PID.TID 0000.0001) %MON ke_vol                       =   4.6183233066162E+12
(PID.TID 0000.0001) // =======================================================
(PID.TID 0000.0001) // End MONITOR dynamic field statistics
(PID.TID 0000.0001) // =======================================================
(PID.TID 0000.0001) // =======================================================
(PID.TID 0000.0001) // Begin OBCS MONITOR field statistics
(PID.TID 0000.0001) // =======================================================
(PID.TID 0000.0001) %MON obc_N_vVel_max               =   1.3766783031605E-03
(PID.TID 0000.0001) %MON obc_N_vVel_min               =   1.3766783031604E-03
(PID.TID 0000.0001) %MON obc_N_vVel_mean              =   1.3766783031605E-03
(PID.TID 0000.0001) %MON obc_N_vVel_sd                =  -1.2197274440462E-19
(PID.TID 0000.0001) %MON obc_N_vVel_Int               =   9.0860768008591E+04
(PID.TID 0000.0001) // =======================================================
(PID.TID 0000.0001) // End OBCS MONITOR field statistics
(PID.TID 0000.0001) // =======================================================
 cg2d: Sum(rhs),rhsMax =   4.69078560459525E+00  3.49531160960145E+02
(PID.TID 0000.0001)      cg2d_init_res =   4.81374816191207E-05
(PID.TID 0000.0001)      cg2d_iters(min,last) =      -1      99
(PID.TID 0000.0001)      cg2d_last_res =   8.52484122817267E-12
(PID.TID 0000.0001) // =======================================================
(PID.TID 0000.0001) // Begin MONITOR dynamic field statistics
(PID.TID 0000.0001) // =======================================================
(PID.TID 0000.0001) %MON time_tsnumber                =                     9
(PID.TID 0000.0001) %MON time_secondsf                =   9.0000000000000E+02
(PID.TID 0000.0001) %MON dynstat_eta_max              =   4.9888232768299E+00
(PID.TID 0000.0001) %MON dynstat_eta_min              =  -1.5056166188689E+01
(PID.TID 0000.0001) %MON dynstat_eta_mean             =  -3.0362513670172E+00
(PID.TID 0000.0001) %MON dynstat_eta_sd               =   5.1290727932520E+00
(PID.TID 0000.0001) %MON dynstat_eta_del2             =   1.8973404196214E-01
(PID.TID 0000.0001) %MON dynstat_uvel_max             =   1.4557592737785E-04
(PID.TID 0000.0001) %MON dynstat_uvel_min             =  -7.8131180942853E-05
(PID.TID 0000.0001) %MON dynstat_uvel_mean            =  -6.1983472759590E-06
(PID.TID 0000.0001) %MON dynstat_uvel_sd              =   2.0610290359412E-05
(PID.TID 0000.0001) %MON dynstat_uvel_del2            =   1.1646882546326E-08
(PID.TID 0000.0001) %MON dynstat_vvel_max             =   2.4248502204998E-03
(PID.TID 0000.0001) %MON dynstat_vvel_min             =   1.4788436396618E-04
(PID.TID 0000.0001) %MON dynstat_vvel_mean            =   1.5354498947619E-03
(PID.TID 0000.0001) %MON dynstat_vvel_sd              =   3.7017352884493E-04
(PID.TID 0000.0001) %MON dynstat_vvel_del2            =   1.8216149694594E-07
(PID.TID 0000.0001) %MON dynstat_wvel_max             =   4.9405966961908E-04
(PID.TID 0000.0001) %MON dynstat_wvel_min             =  -7.6244520160017E-05
(PID.TID 0000.0001) %MON dynstat_wvel_mean            =  -3.4776116980134E-07
(PID.TID 0000.0001) %MON dynstat_wvel_sd              =   3.0989312904709E-05
(PID.TID 0000.0001) %MON dynstat_wvel_del2            =   1.1016654919185E-07
(PID.TID 0000.0001) %MON dynstat_theta_max            =   1.2000000000000E+00
(PID.TID 0000.0001) %MON dynstat_theta_min            =  -1.0000000000000E+00
(PID.TID 0000.0001) %MON dynstat_theta_mean           =   5.6550115994634E-01
(PID.TID 0000.0001) %MON dynstat_theta_sd             =   8.4906936158003E-01
(PID.TID 0000.0001) %MON dynstat_theta_del2           =   4.1488533242819E-07
(PID.TID 0000.0001) %MON dynstat_salt_max             =   3.4700000000000E+01
(PID.TID 0000.0001) %MON dynstat_salt_min             =   3.4000000000000E+01
(PID.TID 0000.0001) %MON dynstat_salt_mean            =   3.4498113837552E+01
(PID.TID 0000.0001) %MON dynstat_salt_sd              =   2.7015846817333E-01
(PID.TID 0000.0001) %MON dynstat_salt_del2            =   1.3222752322278E-07
(PID.TID 0000.0001) %MON advcfl_uvel_max              =   1.4557592737785E-05
(PID.TID 0000.0001) %MON advcfl_vvel_max              =   2.4248502204998E-04
(PID.TID 0000.0001) %MON advcfl_wvel_max              =   2.4702983480954E-03
(PID.TID 0000.0001) %MON advcfl_W_hf_max              =   2.4702983480954E-03
(PID.TID 0000.0001) %MON pe_b_mean                    =  -8.1166988669119E-01
(PID.TID 0000.0001) %MON ke_max                       =   2.9404854103833E-06
(PID.TID 0000.0001) %MON ke_mean                      =   1.2399730131242E-06
(PID.TID 0000.0001) %MON ke_vol                       =   4.6183142346887E+12
(PID.TID 0000.0001) // =======================================================
(PID.TID 0000.0001) // End MONITOR dynamic field statistics
(PID.TID 0000.0001) // =======================================================
(PID.TID 0000.0001) // =======================================================
(PID.TID 0000.0001) // Begin OBCS MONITOR field statistics
(PID.TID 0000.0001) // =======================================================
(PID.TID 0000.0001) %MON obc_N_vVel_max               =   1.4517651692396E-03
(PID.TID 0000.0001) %MON obc_N_vVel_min               =   1.4517651692396E-03
(PID.TID 0000.0001) %MON obc_N_vVel_mean              =   1.4517651692396E-03
(PID.TID 0000.0001) %MON obc_N_vVel_sd                =  -2.1175823681358E-21
(PID.TID 0000.0001) %MON obc_N_vVel_Int               =   9.5816501169816E+04
(PID.TID 0000.0001) // =======================================================
(PID.TID 0000.0001) // End OBCS MONITOR field statistics
(PID.TID 0000.0001) // =======================================================
 cg2d: Sum(rhs),rhsMax =   4.69329522621828E+00  3.49530682495938E+02
(PID.TID 0000.0001)      cg2d_init_res =   4.70270570496074E-05
(PID.TID 0000.0001)      cg2d_iters(min,last) =      -1      97
(PID.TID 0000.0001)      cg2d_last_res =   9.81435342450770E-12
(PID.TID 0000.0001) // =======================================================
(PID.TID 0000.0001) // Begin MONITOR dynamic field statistics
(PID.TID 0000.0001) // =======================================================
(PID.TID 0000.0001) %MON time_tsnumber                =                    10
(PID.TID 0000.0001) %MON time_secondsf                =   1.0000000000000E+03
(PID.TID 0000.0001) %MON dynstat_eta_max              =   4.9865240915228E+00
(PID.TID 0000.0001) %MON dynstat_eta_min              =  -1.5058955651077E+01
(PID.TID 0000.0001) %MON dynstat_eta_mean             =  -3.0378716362500E+00
(PID.TID 0000.0001) %MON dynstat_eta_sd               =   5.1296414698531E+00
(PID.TID 0000.0001) %MON dynstat_eta_del2             =   1.8973404465176E-01
(PID.TID 0000.0001) %MON dynstat_uvel_max             =   1.4529999230861E-04
(PID.TID 0000.0001) %MON dynstat_uvel_min             =  -8.3128811125599E-05
(PID.TID 0000.0001) %MON dynstat_uvel_mean            =  -8.4897998508596E-07
(PID.TID 0000.0001) %MON dynstat_uvel_sd              =   2.1298196545839E-05
(PID.TID 0000.0001) %MON dynstat_uvel_del2            =   1.3145119322162E-08
(PID.TID 0000.0001) %MON dynstat_vvel_max             =   2.4108174983724E-03
(PID.TID 0000.0001) %MON dynstat_vvel_min             =   1.2238282303656E-04
(PID.TID 0000.0001) %MON dynstat_vvel_mean            =   1.4851758837939E-03
(PID.TID 0000.0001) %MON dynstat_vvel_sd              =   3.5633982376150E-04
(PID.TID 0000.0001) %MON dynstat_vvel_del2            =   1.7530423746711E-07
(PID.TID 0000.0001) %MON dynstat_wvel_max             =   4.5424487645244E-04
(PID.TID 0000.0001) %MON dynstat_wvel_min             =  -7.5400703207272E-05
(PID.TID 0000.0001) %MON dynstat_wvel_mean            =  -9.2670135785236E-07
(PID.TID 0000.0001) %MON dynstat_wvel_sd              =   2.8010842427401E-05
(PID.TID 0000.0001) %MON dynstat_wvel_del2            =   9.1339151519605E-08
(PID.TID 0000.0001) %MON dynstat_theta_max            =   1.2000000000000E+00
(PID.TID 0000.0001) %MON dynstat_theta_min            =  -1.0000000000000E+00
(PID.TID 0000.0001) %MON dynstat_theta_mean           =   5.6550144916148E-01
(PID.TID 0000.0001) %MON dynstat_theta_sd             =   8.4906912979999E-01
(PID.TID 0000.0001) %MON dynstat_theta_del2           =   4.5863448303830E-07
(PID.TID 0000.0001) %MON dynstat_salt_max             =   3.4700000000000E+01
(PID.TID 0000.0001) %MON dynstat_salt_min             =   3.4000000000000E+01
(PID.TID 0000.0001) %MON dynstat_salt_mean            =   3.4498113909663E+01
(PID.TID 0000.0001) %MON dynstat_salt_sd              =   2.7015840163502E-01
(PID.TID 0000.0001) %MON dynstat_salt_del2            =   1.4617978502135E-07
(PID.TID 0000.0001) %MON advcfl_uvel_max              =   1.4529999230861E-05
(PID.TID 0000.0001) %MON advcfl_vvel_max              =   2.4108174983724E-04
(PID.TID 0000.0001) %MON advcfl_wvel_max              =   2.2712243822622E-03
(PID.TID 0000.0001) %MON advcfl_W_hf_max              =   2.2712243822622E-03
(PID.TID 0000.0001) %MON pe_b_mean                    =  -8.1197728171779E-01
(PID.TID 0000.0001) %MON ke_max                       =   2.8093997472579E-06
(PID.TID 0000.0001) %MON ke_mean                      =   1.1589282127560E-06
(PID.TID 0000.0001) %MON ke_vol                       =   4.6183046668799E+12
(PID.TID 0000.0001) // =======================================================
(PID.TID 0000.0001) // End MONITOR dynamic field statistics
(PID.TID 0000.0001) // =======================================================
(PID.TID 0000.0001) // =======================================================
(PID.TID 0000.0001) // Begin OBCS MONITOR field statistics
(PID.TID 0000.0001) // =======================================================
(PID.TID 0000.0001) %MON obc_N_vVel_max               =   1.4602698055645E-03
(PID.TID 0000.0001) %MON obc_N_vVel_min               =   1.4602698055645E-03
(PID.TID 0000.0001) %MON obc_N_vVel_mean              =   1.4602698055645E-03
(PID.TID 0000.0001) %MON obc_N_vVel_sd                =   6.5078143306885E-11
(PID.TID 0000.0001) %MON obc_N_vVel_Int               =   9.6377807167259E+04
(PID.TID 0000.0001) // =======================================================
(PID.TID 0000.0001) // End OBCS MONITOR field statistics
(PID.TID 0000.0001) // =======================================================
 cg2d: Sum(rhs),rhsMax =   4.69571614850530E+00  3.49530063198619E+02
(PID.TID 0000.0001)      cg2d_init_res =   4.39648296490726E-05
(PID.TID 0000.0001)      cg2d_iters(min,last) =      -1      96
(PID.TID 0000.0001)      cg2d_last_res =   9.82911211926591E-12
(PID.TID 0000.0001) // =======================================================
(PID.TID 0000.0001) // Begin MONITOR dynamic field statistics
(PID.TID 0000.0001) // =======================================================
(PID.TID 0000.0001) %MON time_tsnumber                =                    11
(PID.TID 0000.0001) %MON time_secondsf                =   1.1000000000000E+03
(PID.TID 0000.0001) %MON dynstat_eta_max              =   4.9843339249996E+00
(PID.TID 0000.0001) %MON dynstat_eta_min              =  -1.5061173952883E+01
(PID.TID 0000.0001) %MON dynstat_eta_mean             =  -3.0394332632404E+00
(PID.TID 0000.0001) %MON dynstat_eta_sd               =   5.1301333365890E+00
(PID.TID 0000.0001) %MON dynstat_eta_del2             =   1.8973404690392E-01
(PID.TID 0000.0001) %MON dynstat_uvel_max             =   2.4068773861208E-04
(PID.TID 0000.0001) %MON dynstat_uvel_min             =  -8.7720489775234E-05
(PID.TID 0000.0001) %MON dynstat_uvel_mean            =   4.4173429634984E-06
(PID.TID 0000.0001) %MON dynstat_uvel_sd              =   3.0067604085497E-05
(PID.TID 0000.0001) %MON dynstat_uvel_del2            =   1.4629940598537E-08
(PID.TID 0000.0001) %MON dynstat_vvel_max             =   2.3275648961878E-03
(PID.TID 0000.0001) %MON dynstat_vvel_min             =   9.9754959883569E-05
(PID.TID 0000.0001) %MON dynstat_vvel_mean            =   1.3872253638564E-03
(PID.TID 0000.0001) %MON dynstat_vvel_sd              =   3.3181857726568E-04
(PID.TID 0000.0001) %MON dynstat_vvel_del2            =   1.6697228209184E-07
(PID.TID 0000.0001) %MON dynstat_wvel_max             =   3.9420843092734E-04
(PID.TID 0000.0001) %MON dynstat_wvel_min             =  -7.0505755817483E-05
(PID.TID 0000.0001) %MON dynstat_wvel_mean            =  -1.3226585766792E-06
(PID.TID 0000.0001) %MON dynstat_wvel_sd              =   2.3977367819105E-05
(PID.TID 0000.0001) %MON dynstat_wvel_del2            =   6.7499238827040E-08
(PID.TID 0000.0001) %MON dynstat_theta_max            =   1.2000000000000E+00
(PID.TID 0000.0001) %MON dynstat_theta_min            =  -1.0000000000000E+00
(PID.TID 0000.0001) %MON dynstat_theta_mean           =   5.6550180660223E-01
(PID.TID 0000.0001) %MON dynstat_theta_sd             =   8.4906888766999E-01
(PID.TID 0000.0001) %MON dynstat_theta_del2           =   4.8945788745583E-07
(PID.TID 0000.0001) %MON dynstat_salt_max             =   3.4700000000000E+01
(PID.TID 0000.0001) %MON dynstat_salt_min             =   3.4000000000000E+01
(PID.TID 0000.0001) %MON dynstat_salt_mean            =   3.4498114004313E+01
(PID.TID 0000.0001) %MON dynstat_salt_sd              =   2.7015833114668E-01
(PID.TID 0000.0001) %MON dynstat_salt_del2            =   1.5602303862260E-07
(PID.TID 0000.0001) %MON advcfl_uvel_max              =   2.4068773861208E-05
(PID.TID 0000.0001) %MON advcfl_vvel_max              =   2.3275648961878E-04
(PID.TID 0000.0001) %MON advcfl_wvel_max              =   1.9710421546367E-03
(PID.TID 0000.0001) %MON advcfl_W_hf_max              =   1.9710421546367E-03
(PID.TID 0000.0001) %MON pe_b_mean                    =  -8.1226113879686E-01
(PID.TID 0000.0001) %MON ke_max                       =   2.5120908279684E-06
(PID.TID 0000.0001) %MON ke_mean                      =   1.0105911258720E-06
(PID.TID 0000.0001) %MON ke_vol                       =   4.6182950424807E+12
(PID.TID 0000.0001) // =======================================================
(PID.TID 0000.0001) // End MONITOR dynamic field statistics
(PID.TID 0000.0001) // =======================================================
(PID.TID 0000.0001) // =======================================================
(PID.TID 0000.0001) // Begin OBCS MONITOR field statistics
(PID.TID 0000.0001) // =======================================================
(PID.TID 0000.0001) %MON obc_N_vVel_max               =   1.4074100622081E-03
(PID.TID 0000.0001) %MON obc_N_vVel_min               =   1.4074100622080E-03
(PID.TID 0000.0001) %MON obc_N_vVel_mean              =   1.4074100622080E-03
(PID.TID 0000.0001) %MON obc_N_vVel_sd                =   2.7379265116508E-10
(PID.TID 0000.0001) %MON obc_N_vVel_Int               =   9.2889064105731E+04
(PID.TID 0000.0001) // =======================================================
(PID.TID 0000.0001) // End OBCS MONITOR field statistics
(PID.TID 0000.0001) // =======================================================
 cg2d: Sum(rhs),rhsMax =   4.69795858866599E+00  3.49529374465484E+02
(PID.TID 0000.0001)      cg2d_init_res =   3.88532074964419E-05
(PID.TID 0000.0001)      cg2d_iters(min,last) =      -1      97
(PID.TID 0000.0001)      cg2d_last_res =   9.05131707213416E-12
(PID.TID 0000.0001) // =======================================================
(PID.TID 0000.0001) // Begin MONITOR dynamic field statistics
(PID.TID 0000.0001) // =======================================================
(PID.TID 0000.0001) %MON time_tsnumber                =                    12
(PID.TID 0000.0001) %MON time_secondsf                =   1.2000000000000E+03
(PID.TID 0000.0001) %MON dynstat_eta_max              =   4.9824251823421E+00
(PID.TID 0000.0001) %MON dynstat_eta_min              =  -1.5062995601520E+01
(PID.TID 0000.0001) %MON dynstat_eta_mean             =  -3.0408787532614E+00
(PID.TID 0000.0001) %MON dynstat_eta_sd               =   5.1305377889043E+00
(PID.TID 0000.0001) %MON dynstat_eta_del2             =   1.8973404883017E-01
(PID.TID 0000.0001) %MON dynstat_uvel_max             =   2.8916508277232E-04
(PID.TID 0000.0001) %MON dynstat_uvel_min             =  -9.2021622482508E-05
(PID.TID 0000.0001) %MON dynstat_uvel_mean            =   8.9601410574836E-06
(PID.TID 0000.0001) %MON dynstat_uvel_sd              =   3.4839215716439E-05
(PID.TID 0000.0001) %MON dynstat_uvel_del2            =   1.6005501491986E-08
(PID.TID 0000.0001) %MON dynstat_vvel_max             =   2.1895500291294E-03
(PID.TID 0000.0001) %MON dynstat_vvel_min             =   8.3631006096319E-05
(PID.TID 0000.0001) %MON dynstat_vvel_mean            =   1.2488527017144E-03
(PID.TID 0000.0001) %MON dynstat_vvel_sd              =   2.9492720296249E-04
(PID.TID 0000.0001) %MON dynstat_vvel_del2            =   1.6209777472886E-07
(PID.TID 0000.0001) %MON dynstat_wvel_max             =   3.1875422844167E-04
(PID.TID 0000.0001) %MON dynstat_wvel_min             =  -6.1990962763426E-05
(PID.TID 0000.0001) %MON dynstat_wvel_mean            =  -1.5514429402866E-06
(PID.TID 0000.0001) %MON dynstat_wvel_sd              =   1.9558506784365E-05
(PID.TID 0000.0001) %MON dynstat_wvel_del2            =   4.5051468733974E-08
(PID.TID 0000.0001) %MON dynstat_theta_max            =   1.2000000000000E+00
(PID.TID 0000.0001) %MON dynstat_theta_min            =  -1.0000000000000E+00
(PID.TID 0000.0001) %MON dynstat_theta_mean           =   5.6550219485447E-01
(PID.TID 0000.0001) %MON dynstat_theta_sd             =   8.4906864300162E-01
(PID.TID 0000.0001) %MON dynstat_theta_del2           =   5.0509766051273E-07
(PID.TID 0000.0001) %MON dynstat_salt_max             =   3.4700000000000E+01
(PID.TID 0000.0001) %MON dynstat_salt_min             =   3.4000000000000E+01
(PID.TID 0000.0001) %MON dynstat_salt_mean            =   3.4498114109658E+01
(PID.TID 0000.0001) %MON dynstat_salt_sd              =   2.7015825885646E-01
(PID.TID 0000.0001) %MON dynstat_salt_del2            =   1.6103841388376E-07
(PID.TID 0000.0001) %MON advcfl_uvel_max              =   2.8916508277232E-05
(PID.TID 0000.0001) %MON advcfl_vvel_max              =   2.1895500291294E-04
(PID.TID 0000.0001) %MON advcfl_wvel_max              =   1.5937711422083E-03
(PID.TID 0000.0001) %MON advcfl_W_hf_max              =   1.5937711422083E-03
(PID.TID 0000.0001) %MON pe_b_mean                    =  -8.1251446144349E-01
(PID.TID 0000.0001) %MON ke_max                       =   2.1119746844373E-06
(PID.TID 0000.0001) %MON ke_mean                      =   8.1785094988655E-07
(PID.TID 0000.0001) %MON ke_vol                       =   4.6182857664164E+12
(PID.TID 0000.0001) // =======================================================
(PID.TID 0000.0001) // End MONITOR dynamic field statistics
(PID.TID 0000.0001) // =======================================================
(PID.TID 0000.0001) // =======================================================
(PID.TID 0000.0001) // Begin OBCS MONITOR field statistics
(PID.TID 0000.0001) // =======================================================
(PID.TID 0000.0001) %MON obc_N_vVel_max               =   1.3027988937654E-03
(PID.TID 0000.0001) %MON obc_N_vVel_min               =   1.3027988937654E-03
(PID.TID 0000.0001) %MON obc_N_vVel_mean              =   1.3027988937654E-03
(PID.TID 0000.0001) %MON obc_N_vVel_sd                =  -6.1409888675937E-21
(PID.TID 0000.0001) %MON obc_N_vVel_Int               =   8.5984726988518E+04
(PID.TID 0000.0001) // =======================================================
(PID.TID 0000.0001) // End OBCS MONITOR field statistics
(PID.TID 0000.0001) // =======================================================
 cg2d: Sum(rhs),rhsMax =   4.69995218757976E+00  3.49528704939168E+02
(PID.TID 0000.0001)      cg2d_init_res =   3.23771953222263E-05
(PID.TID 0000.0001)      cg2d_iters(min,last) =      -1      97
(PID.TID 0000.0001)      cg2d_last_res =   8.50532917718122E-12
(PID.TID 0000.0001) // =======================================================
(PID.TID 0000.0001) // Begin MONITOR dynamic field statistics
(PID.TID 0000.0001) // =======================================================
(PID.TID 0000.0001) %MON time_tsnumber                =                    13
(PID.TID 0000.0001) %MON time_secondsf                =   1.3000000000000E+03
(PID.TID 0000.0001) %MON dynstat_eta_max              =   4.9809047326640E+00
(PID.TID 0000.0001) %MON dynstat_eta_min              =  -1.5064590148814E+01
(PID.TID 0000.0001) %MON dynstat_eta_mean             =  -3.0421633359273E+00
(PID.TID 0000.0001) %MON dynstat_eta_sd               =   5.1308494025592E+00
(PID.TID 0000.0001) %MON dynstat_eta_del2             =   1.8973405058775E-01
(PID.TID 0000.0001) %MON dynstat_uvel_max             =   2.8848673997262E-04
(PID.TID 0000.0001) %MON dynstat_uvel_min             =  -9.6076290747649E-05
(PID.TID 0000.0001) %MON dynstat_uvel_mean            =   1.2306286555250E-05
(PID.TID 0000.0001) %MON dynstat_uvel_sd              =   3.4161484703393E-05
(PID.TID 0000.0001) %MON dynstat_uvel_del2            =   1.7172410133173E-08
(PID.TID 0000.0001) %MON dynstat_vvel_max             =   2.0119266634833E-03
(PID.TID 0000.0001) %MON dynstat_vvel_min             =   7.3645613646534E-05
(PID.TID 0000.0001) %MON dynstat_vvel_mean            =   1.0798160891947E-03
(PID.TID 0000.0001) %MON dynstat_vvel_sd              =   2.4899622566585E-04
(PID.TID 0000.0001) %MON dynstat_vvel_del2            =   1.6498837676388E-07
(PID.TID 0000.0001) %MON dynstat_wvel_max             =   2.3252130309940E-04
(PID.TID 0000.0001) %MON dynstat_wvel_min             =  -5.0919306440451E-05
(PID.TID 0000.0001) %MON dynstat_wvel_mean            =  -1.6445727229209E-06
(PID.TID 0000.0001) %MON dynstat_wvel_sd              =   1.5845620887306E-05
(PID.TID 0000.0001) %MON dynstat_wvel_del2            =   4.1635978339953E-08
(PID.TID 0000.0001) %MON dynstat_theta_max            =   1.2000000000000E+00
(PID.TID 0000.0001) %MON dynstat_theta_min            =  -1.0000000000000E+00
(PID.TID 0000.0001) %MON dynstat_theta_mean           =   5.6550257571250E-01
(PID.TID 0000.0001) %MON dynstat_theta_sd             =   8.4906840690806E-01
(PID.TID 0000.0001) %MON dynstat_theta_del2           =   5.0440294554285E-07
(PID.TID 0000.0001) %MON dynstat_salt_max             =   3.4700000000000E+01
(PID.TID 0000.0001) %MON dynstat_salt_min             =   3.4000000000000E+01
(PID.TID 0000.0001) %MON dynstat_salt_mean            =   3.4498114213563E+01
(PID.TID 0000.0001) %MON dynstat_salt_sd              =   2.7015818809887E-01
(PID.TID 0000.0001) %MON dynstat_salt_del2            =   1.6086021863282E-07
(PID.TID 0000.0001) %MON advcfl_uvel_max              =   2.8848673997262E-05
(PID.TID 0000.0001) %MON advcfl_vvel_max              =   2.0119266634833E-04
(PID.TID 0000.0001) %MON advcfl_wvel_max              =   1.1626065154970E-03
(PID.TID 0000.0001) %MON advcfl_W_hf_max              =   1.1626065154970E-03
(PID.TID 0000.0001) %MON pe_b_mean                    =  -8.1273195056139E-01
(PID.TID 0000.0001) %MON ke_max                       =   1.6725947365138E-06
(PID.TID 0000.0001) %MON ke_mean                      =   6.0983722199105E-07
(PID.TID 0000.0001) %MON ke_vol                       =   4.6182771802056E+12
(PID.TID 0000.0001) // =======================================================
(PID.TID 0000.0001) // End MONITOR dynamic field statistics
(PID.TID 0000.0001) // =======================================================
(PID.TID 0000.0001) // =======================================================
(PID.TID 0000.0001) // Begin OBCS MONITOR field statistics
(PID.TID 0000.0001) // =======================================================
(PID.TID 0000.0001) %MON obc_N_vVel_max               =   1.1578924134314E-03
(PID.TID 0000.0001) %MON obc_N_vVel_min               =   1.1578924134314E-03
(PID.TID 0000.0001) %MON obc_N_vVel_mean              =   1.1578924134314E-03
(PID.TID 0000.0001) %MON obc_N_vVel_sd                =   9.5423289520870E-11
(PID.TID 0000.0001) %MON obc_N_vVel_Int               =   7.6420899286474E+04
(PID.TID 0000.0001) // =======================================================
(PID.TID 0000.0001) // End OBCS MONITOR field statistics
(PID.TID 0000.0001) // =======================================================
 cg2d: Sum(rhs),rhsMax =   4.70164733500206E+00  3.49528127993757E+02
(PID.TID 0000.0001)      cg2d_init_res =   2.56476301603786E-05
(PID.TID 0000.0001)      cg2d_iters(min,last) =      -1      96
(PID.TID 0000.0001)      cg2d_last_res =   9.16715808417410E-12
(PID.TID 0000.0001) // =======================================================
(PID.TID 0000.0001) // Begin MONITOR dynamic field statistics
(PID.TID 0000.0001) // =======================================================
(PID.TID 0000.0001) %MON time_tsnumber                =                    14
(PID.TID 0000.0001) %MON time_secondsf                =   1.4000000000000E+03
(PID.TID 0000.0001) %MON dynstat_eta_max              =   4.9798078606501E+00
(PID.TID 0000.0001) %MON dynstat_eta_min              =  -1.5066049536444E+01
(PID.TID 0000.0001) %MON dynstat_eta_mean             =  -3.0432555397965E+00
(PID.TID 0000.0001) %MON dynstat_eta_sd               =   5.1310677102204E+00
(PID.TID 0000.0001) %MON dynstat_eta_del2             =   1.8973405225465E-01
(PID.TID 0000.0001) %MON dynstat_uvel_max             =   2.5680145518570E-04
(PID.TID 0000.0001) %MON dynstat_uvel_min             =  -9.9941455556529E-05
(PID.TID 0000.0001) %MON dynstat_uvel_mean            =   1.4207025308984E-05
(PID.TID 0000.0001) %MON dynstat_uvel_sd              =   3.0813842408498E-05
(PID.TID 0000.0001) %MON dynstat_uvel_del2            =   1.8055443025912E-08
(PID.TID 0000.0001) %MON dynstat_vvel_max             =   1.8095741267388E-03
(PID.TID 0000.0001) %MON dynstat_vvel_min             =   6.6618752621928E-05
(PID.TID 0000.0001) %MON dynstat_vvel_mean            =   8.9044633590289E-04
(PID.TID 0000.0001) %MON dynstat_vvel_sd              =   1.9989119172281E-04
(PID.TID 0000.0001) %MON dynstat_vvel_del2            =   1.7712044354996E-07
(PID.TID 0000.0001) %MON dynstat_wvel_max             =   1.7025976882897E-04
(PID.TID 0000.0001) %MON dynstat_wvel_min             =  -5.5812997862400E-05
(PID.TID 0000.0001) %MON dynstat_wvel_mean            =  -1.6397894882715E-06
(PID.TID 0000.0001) %MON dynstat_wvel_sd              =   1.4429597878275E-05
(PID.TID 0000.0001) %MON dynstat_wvel_del2            =   6.4373463903102E-08
(PID.TID 0000.0001) %MON dynstat_theta_max            =   1.2000000000000E+00
(PID.TID 0000.0001) %MON dynstat_theta_min            =  -1.0000000000000E+00
(PID.TID 0000.0001) %MON dynstat_theta_mean           =   5.6550291437780E-01
(PID.TID 0000.0001) %MON dynstat_theta_sd             =   8.4906819027695E-01
(PID.TID 0000.0001) %MON dynstat_theta_del2           =   4.8759928002612E-07
(PID.TID 0000.0001) %MON dynstat_salt_max             =   3.4700000000000E+01
(PID.TID 0000.0001) %MON dynstat_salt_min             =   3.4000000000000E+01
(PID.TID 0000.0001) %MON dynstat_salt_mean            =   3.4498114304895E+01
(PID.TID 0000.0001) %MON dynstat_salt_sd              =   2.7015812228843E-01
(PID.TID 0000.0001) %MON dynstat_salt_del2            =   1.5556334693788E-07
(PID.TID 0000.0001) %MON advcfl_uvel_max              =   2.5680145518570E-05
(PID.TID 0000.0001) %MON advcfl_vvel_max              =   1.8095741267388E-04
(PID.TID 0000.0001) %MON advcfl_wvel_max              =   8.5129884414486E-04
(PID.TID 0000.0001) %MON advcfl_W_hf_max              =   8.5129884414486E-04
(PID.TID 0000.0001) %MON pe_b_mean                    =  -8.1290994327060E-01
(PID.TID 0000.0001) %MON ke_max                       =   1.2480342006570E-06
(PID.TID 0000.0001) %MON ke_mean                      =   4.1351246682766E-07
(PID.TID 0000.0001) %MON ke_vol                       =   4.6182695497846E+12
(PID.TID 0000.0001) // =======================================================
(PID.TID 0000.0001) // End MONITOR dynamic field statistics
(PID.TID 0000.0001) // =======================================================
(PID.TID 0000.0001) // =======================================================
(PID.TID 0000.0001) // Begin OBCS MONITOR field statistics
(PID.TID 0000.0001) // =======================================================
(PID.TID 0000.0001) %MON obc_N_vVel_max               =   9.8466746478604E-04
(PID.TID 0000.0001) %MON obc_N_vVel_min               =   9.8466746478601E-04
(PID.TID 0000.0001) %MON obc_N_vVel_mean              =   9.8466746478604E-04
(PID.TID 0000.0001) %MON obc_N_vVel_sd                =  -1.3340768919255E-20
(PID.TID 0000.0001) %MON obc_N_vVel_Int               =   6.4988052675878E+04
(PID.TID 0000.0001) // =======================================================
(PID.TID 0000.0001) // End OBCS MONITOR field statistics
(PID.TID 0000.0001) // =======================================================
 cg2d: Sum(rhs),rhsMax =   4.70301476811018E+00  3.49527683344227E+02
(PID.TID 0000.0001)      cg2d_init_res =   1.95617331765560E-05
(PID.TID 0000.0001)      cg2d_iters(min,last) =      -1      95
(PID.TID 0000.0001)      cg2d_last_res =   9.80971485437585E-12
(PID.TID 0000.0001) // =======================================================
(PID.TID 0000.0001) // Begin MONITOR dynamic field statistics
(PID.TID 0000.0001) // =======================================================
(PID.TID 0000.0001) %MON time_tsnumber                =                    15
(PID.TID 0000.0001) %MON time_secondsf                =   1.5000000000000E+03
(PID.TID 0000.0001) %MON dynstat_eta_max              =   4.9791075220064E+00
(PID.TID 0000.0001) %MON dynstat_eta_min              =  -1.5067367252924E+01
(PID.TID 0000.0001) %MON dynstat_eta_mean             =  -3.0441367715393E+00
(PID.TID 0000.0001) %MON dynstat_eta_sd               =   5.1311964205565E+00
(PID.TID 0000.0001) %MON dynstat_eta_del2             =   1.8973405379446E-01
(PID.TID 0000.0001) %MON dynstat_uvel_max             =   2.1858425566168E-04
(PID.TID 0000.0001) %MON dynstat_uvel_min             =  -1.0369551646289E-04
(PID.TID 0000.0001) %MON dynstat_uvel_mean            =   1.4653032046230E-05
(PID.TID 0000.0001) %MON dynstat_uvel_sd              =   2.8114333529971E-05
(PID.TID 0000.0001) %MON dynstat_uvel_del2            =   1.8624025341759E-08
(PID.TID 0000.0001) %MON dynstat_vvel_max             =   1.5958707269714E-03
(PID.TID 0000.0001) %MON dynstat_vvel_min             =  -1.6531585479832E-05
(PID.TID 0000.0001) %MON dynstat_vvel_mean            =   6.9020405518137E-04
(PID.TID 0000.0001) %MON dynstat_vvel_sd              =   1.5339724213931E-04
(PID.TID 0000.0001) %MON dynstat_vvel_del2            =   1.9654002770791E-07
(PID.TID 0000.0001) %MON dynstat_wvel_max             =   1.9003183854823E-04
(PID.TID 0000.0001) %MON dynstat_wvel_min             =  -1.3606010366695E-04
(PID.TID 0000.0001) %MON dynstat_wvel_mean            =  -1.5747986596895E-06
(PID.TID 0000.0001) %MON dynstat_wvel_sd              =   1.6181656613707E-05
(PID.TID 0000.0001) %MON dynstat_wvel_del2            =   9.5777961321975E-08
(PID.TID 0000.0001) %MON dynstat_theta_max            =   1.2000000000000E+00
(PID.TID 0000.0001) %MON dynstat_theta_min            =  -1.0000000000000E+00
(PID.TID 0000.0001) %MON dynstat_theta_mean           =   5.6550318046713E-01
(PID.TID 0000.0001) %MON dynstat_theta_sd             =   8.4906800416534E-01
(PID.TID 0000.0001) %MON dynstat_theta_del2           =   4.5605255556116E-07
(PID.TID 0000.0001) %MON dynstat_salt_max             =   3.4700000000000E+01
(PID.TID 0000.0001) %MON dynstat_salt_min             =   3.4000000000000E+01
(PID.TID 0000.0001) %MON dynstat_salt_mean            =   3.4498114373684E+01
(PID.TID 0000.0001) %MON dynstat_salt_sd              =   2.7015806518522E-01
(PID.TID 0000.0001) %MON dynstat_salt_del2            =   1.4558670615965E-07
(PID.TID 0000.0001) %MON advcfl_uvel_max              =   2.1858425566168E-05
(PID.TID 0000.0001) %MON advcfl_vvel_max              =   1.5958707269714E-04
(PID.TID 0000.0001) %MON advcfl_wvel_max              =   9.5015919274115E-04
(PID.TID 0000.0001) %MON advcfl_W_hf_max              =   9.5015919274115E-04
(PID.TID 0000.0001) %MON pe_b_mean                    =  -8.1304632858679E-01
(PID.TID 0000.0001) %MON ke_max                       =   8.7669226022672E-07
(PID.TID 0000.0001) %MON ke_mean                      =   2.4818434612666E-07
(PID.TID 0000.0001) %MON ke_vol                       =   4.6182630620936E+12
(PID.TID 0000.0001) // =======================================================
(PID.TID 0000.0001) // End MONITOR dynamic field statistics
(PID.TID 0000.0001) // =======================================================
(PID.TID 0000.0001) // =======================================================
(PID.TID 0000.0001) // Begin OBCS MONITOR field statistics
(PID.TID 0000.0001) // =======================================================
(PID.TID 0000.0001) %MON obc_N_vVel_max               =   7.9473833463267E-04
(PID.TID 0000.0001) %MON obc_N_vVel_min               =   7.9473833463265E-04
(PID.TID 0000.0001) %MON obc_N_vVel_mean              =   7.9473833463267E-04
(PID.TID 0000.0001) %MON obc_N_vVel_sd                =  -1.6940658945086E-21
(PID.TID 0000.0001) %MON obc_N_vVel_Int               =   5.2452730085756E+04
(PID.TID 0000.0001) // =======================================================
(PID.TID 0000.0001) // End OBCS MONITOR field statistics
(PID.TID 0000.0001) // =======================================================
 cg2d: Sum(rhs),rhsMax =   4.70404357550092E+00  3.49527377758545E+02
(PID.TID 0000.0001)      cg2d_init_res =   1.45422180009874E-05
(PID.TID 0000.0001)      cg2d_iters(min,last) =      -1      94
(PID.TID 0000.0001)      cg2d_last_res =   9.94401766607562E-12
(PID.TID 0000.0001) // =======================================================
(PID.TID 0000.0001) // Begin MONITOR dynamic field statistics
(PID.TID 0000.0001) // =======================================================
(PID.TID 0000.0001) %MON time_tsnumber                =                    16
(PID.TID 0000.0001) %MON time_secondsf                =   1.6000000000000E+03
(PID.TID 0000.0001) %MON dynstat_eta_max              =   4.9787360472454E+00
(PID.TID 0000.0001) %MON dynstat_eta_min              =  -1.5068460977305E+01
(PID.TID 0000.0001) %MON dynstat_eta_mean             =  -3.0448000292718E+00
(PID.TID 0000.0001) %MON dynstat_eta_sd               =   5.1312421806275E+00
(PID.TID 0000.0001) %MON dynstat_eta_del2             =   1.8973405563123E-01
(PID.TID 0000.0001) %MON dynstat_uvel_max             =   1.9653915421519E-04
(PID.TID 0000.0001) %MON dynstat_uvel_min             =  -1.0740294869271E-04
(PID.TID 0000.0001) %MON dynstat_uvel_mean            =   1.3846482992544E-05
(PID.TID 0000.0001) %MON dynstat_uvel_sd              =   2.7320527008166E-05
(PID.TID 0000.0001) %MON dynstat_uvel_del2            =   1.8899128350374E-08
(PID.TID 0000.0001) %MON dynstat_vvel_max             =   1.3815435284208E-03
(PID.TID 0000.0001) %MON dynstat_vvel_min             =  -2.6335722146458E-04
(PID.TID 0000.0001) %MON dynstat_vvel_mean            =   4.8699321887029E-04
(PID.TID 0000.0001) %MON dynstat_vvel_sd              =   1.1445840189050E-04
(PID.TID 0000.0001) %MON dynstat_vvel_del2            =   2.1958956065589E-07
(PID.TID 0000.0001) %MON dynstat_wvel_max             =   2.0609226188238E-04
(PID.TID 0000.0001) %MON dynstat_wvel_min             =  -2.1741870095547E-04
(PID.TID 0000.0001) %MON dynstat_wvel_mean            =  -1.4826034895738E-06
(PID.TID 0000.0001) %MON dynstat_wvel_sd              =   2.0053777449570E-05
(PID.TID 0000.0001) %MON dynstat_wvel_del2            =   1.2744256216470E-07
(PID.TID 0000.0001) %MON dynstat_theta_max            =   1.2000000000000E+00
(PID.TID 0000.0001) %MON dynstat_theta_min            =  -1.0000000000000E+00
(PID.TID 0000.0001) %MON dynstat_theta_mean           =   5.6550335036624E-01
(PID.TID 0000.0001) %MON dynstat_theta_sd             =   8.4906785962493E-01
(PID.TID 0000.0001) %MON dynstat_theta_del2           =   4.1240793414835E-07
(PID.TID 0000.0001) %MON dynstat_salt_max             =   3.4700000000000E+01
(PID.TID 0000.0001) %MON dynstat_salt_min             =   3.4000000000000E+01
(PID.TID 0000.0001) %MON dynstat_salt_mean            =   3.4498114411929E+01
(PID.TID 0000.0001) %MON dynstat_salt_sd              =   2.7015802089790E-01
(PID.TID 0000.0001) %MON dynstat_salt_del2            =   1.3177625216753E-07
(PID.TID 0000.0001) %MON advcfl_uvel_max              =   1.9653915421519E-05
(PID.TID 0000.0001) %MON advcfl_vvel_max              =   1.3815435284208E-04
(PID.TID 0000.0001) %MON advcfl_wvel_max              =   1.0870935047773E-03
(PID.TID 0000.0001) %MON advcfl_W_hf_max              =   1.0870935047773E-03
(PID.TID 0000.0001) %MON pe_b_mean                    =  -8.1314042323039E-01
(PID.TID 0000.0001) %MON ke_max                       =   5.7921644769170E-07
(PID.TID 0000.0001) %MON ke_mean                      =   1.2430761649880E-07
(PID.TID 0000.0001) %MON ke_vol                       =   4.6182578275771E+12
(PID.TID 0000.0001) // =======================================================
(PID.TID 0000.0001) // End MONITOR dynamic field statistics
(PID.TID 0000.0001) // =======================================================
(PID.TID 0000.0001) // =======================================================
(PID.TID 0000.0001) // Begin OBCS MONITOR field statistics
(PID.TID 0000.0001) // =======================================================
(PID.TID 0000.0001) %MON obc_N_vVel_max               =   5.9855569621372E-04
(PID.TID 0000.0001) %MON obc_N_vVel_min               =   5.9855569621371E-04
(PID.TID 0000.0001) %MON obc_N_vVel_mean              =   5.9855569621371E-04
(PID.TID 0000.0001) %MON obc_N_vVel_sd                =   1.2623314667797E-10
(PID.TID 0000.0001) %MON obc_N_vVel_Int               =   3.9504675950105E+04
(PID.TID 0000.0001) // =======================================================
(PID.TID 0000.0001) // End OBCS MONITOR field statistics
(PID.TID 0000.0001) // =======================================================
 cg2d: Sum(rhs),rhsMax =   4.70473801066206E+00  3.49527194588592E+02
(PID.TID 0000.0001)      cg2d_init_res =   1.08339322205919E-05
(PID.TID 0000.0001)      cg2d_iters(min,last) =      -1      93
(PID.TID 0000.0001)      cg2d_last_res =   9.14724900077175E-12
(PID.TID 0000.0001) // =======================================================
(PID.TID 0000.0001) // Begin MONITOR dynamic field statistics
(PID.TID 0000.0001) // =======================================================
(PID.TID 0000.0001) %MON time_tsnumber                =                    17
(PID.TID 0000.0001) %MON time_secondsf                =   1.7000000000000E+03
(PID.TID 0000.0001) %MON dynstat_eta_max              =   4.9786102364755E+00
(PID.TID 0000.0001) %MON dynstat_eta_min              =  -1.5069216462081E+01
(PID.TID 0000.0001) %MON dynstat_eta_mean             =  -3.0452479224834E+00
(PID.TID 0000.0001) %MON dynstat_eta_sd               =   5.1312132085301E+00
(PID.TID 0000.0001) %MON dynstat_eta_del2             =   1.8973405772873E-01
(PID.TID 0000.0001) %MON dynstat_uvel_max             =   1.9710529114725E-04
(PID.TID 0000.0001) %MON dynstat_uvel_min             =  -1.1108029083756E-04
(PID.TID 0000.0001) %MON dynstat_uvel_mean            =   1.2138060619001E-05
(PID.TID 0000.0001) %MON dynstat_uvel_sd              =   2.7463297972921E-05
(PID.TID 0000.0001) %MON dynstat_uvel_del2            =   1.8941832771324E-08
(PID.TID 0000.0001) %MON dynstat_vvel_max             =   1.1740626457879E-03
(PID.TID 0000.0001) %MON dynstat_vvel_min             =  -4.9241813308396E-04
(PID.TID 0000.0001) %MON dynstat_vvel_mean            =   2.8711576709622E-04
(PID.TID 0000.0001) %MON dynstat_vvel_sd              =   8.8624130184366E-05
(PID.TID 0000.0001) %MON dynstat_vvel_del2            =   2.4274618857589E-07
(PID.TID 0000.0001) %MON dynstat_wvel_max             =   2.1752112494657E-04
(PID.TID 0000.0001) %MON dynstat_wvel_min             =  -2.9562271804690E-04
(PID.TID 0000.0001) %MON dynstat_wvel_mean            =  -1.3878261760063E-06
(PID.TID 0000.0001) %MON dynstat_wvel_sd              =   2.4636511092988E-05
(PID.TID 0000.0001) %MON dynstat_wvel_del2            =   1.5633730626558E-07
(PID.TID 0000.0001) %MON dynstat_theta_max            =   1.2000000000000E+00
(PID.TID 0000.0001) %MON dynstat_theta_min            =  -1.0000000000000E+00
(PID.TID 0000.0001) %MON dynstat_theta_mean           =   5.6550341519464E-01
(PID.TID 0000.0001) %MON dynstat_theta_sd             =   8.4906775862557E-01
(PID.TID 0000.0001) %MON dynstat_theta_del2           =   3.6117942708567E-07
(PID.TID 0000.0001) %MON dynstat_salt_max             =   3.4700000000000E+01
(PID.TID 0000.0001) %MON dynstat_salt_min             =   3.4000000000000E+01
(PID.TID 0000.0001) %MON dynstat_salt_mean            =   3.4498114416755E+01
(PID.TID 0000.0001) %MON dynstat_salt_sd              =   2.7015799021361E-01
(PID.TID 0000.0001) %MON dynstat_salt_del2            =   1.1557530852179E-07
(PID.TID 0000.0001) %MON advcfl_uvel_max              =   1.9710529114725E-05
(PID.TID 0000.0001) %MON advcfl_vvel_max              =   1.1740626457879E-04
(PID.TID 0000.0001) %MON advcfl_wvel_max              =   1.4781135902345E-03
(PID.TID 0000.0001) %MON advcfl_W_hf_max              =   1.4781135902345E-03
(PID.TID 0000.0001) %MON pe_b_mean                    =  -8.1319280867684E-01
(PID.TID 0000.0001) %MON ke_max                       =   4.0476126295367E-07
(PID.TID 0000.0001) %MON ke_mean                      =   4.5000417909146E-08
(PID.TID 0000.0001) %MON ke_vol                       =   4.6182538878261E+12
(PID.TID 0000.0001) // =======================================================
(PID.TID 0000.0001) // End MONITOR dynamic field statistics
(PID.TID 0000.0001) // =======================================================
(PID.TID 0000.0001) // =======================================================
(PID.TID 0000.0001) // Begin OBCS MONITOR field statistics
(PID.TID 0000.0001) // =======================================================
(PID.TID 0000.0001) %MON obc_N_vVel_max               =   4.0472633256965E-04
(PID.TID 0000.0001) %MON obc_N_vVel_min               =   4.0472633256965E-04
(PID.TID 0000.0001) %MON obc_N_vVel_mean              =   4.0472633256965E-04
(PID.TID 0000.0001) %MON obc_N_vVel_sd                =  -7.9674036601108E-21
(PID.TID 0000.0001) %MON obc_N_vVel_Int               =   2.6711937949597E+04
(PID.TID 0000.0001) // =======================================================
(PID.TID 0000.0001) // End OBCS MONITOR field statistics
(PID.TID 0000.0001) // =======================================================
 cg2d: Sum(rhs),rhsMax =   4.70511348154699E+00  3.49527103654496E+02
(PID.TID 0000.0001)      cg2d_init_res =   9.05733372353592E-06
(PID.TID 0000.0001)      cg2d_iters(min,last) =      -1      91
(PID.TID 0000.0001)      cg2d_last_res =   9.72905493101551E-12
(PID.TID 0000.0001) // =======================================================
(PID.TID 0000.0001) // Begin MONITOR dynamic field statistics
(PID.TID 0000.0001) // =======================================================
(PID.TID 0000.0001) %MON time_tsnumber                =                    18
(PID.TID 0000.0001) %MON time_secondsf                =   1.8000000000000E+03
(PID.TID 0000.0001) %MON dynstat_eta_max              =   4.9786535754784E+00
(PID.TID 0000.0001) %MON dynstat_eta_min              =  -1.5069531326047E+01
(PID.TID 0000.0001) %MON dynstat_eta_mean             =  -3.0454901621682E+00
(PID.TID 0000.0001) %MON dynstat_eta_sd               =   5.1311181760647E+00
(PID.TID 0000.0001) %MON dynstat_eta_del2             =   1.8973406004194E-01
(PID.TID 0000.0001) %MON dynstat_uvel_max             =   1.9623783602885E-04
(PID.TID 0000.0001) %MON dynstat_uvel_min             =  -1.1468807393783E-04
(PID.TID 0000.0001) %MON dynstat_uvel_mean            =   9.9442693288437E-06
(PID.TID 0000.0001) %MON dynstat_uvel_sd              =   2.7471259317533E-05
(PID.TID 0000.0001) %MON dynstat_uvel_del2            =   1.8829682372277E-08
(PID.TID 0000.0001) %MON dynstat_vvel_max             =   9.7779144099164E-04
(PID.TID 0000.0001) %MON dynstat_vvel_min             =  -6.9766163240689E-04
(PID.TID 0000.0001) %MON dynstat_vvel_mean            =   9.5575773778548E-05
(PID.TID 0000.0001) %MON dynstat_vvel_sd              =   8.2121539091074E-05
(PID.TID 0000.0001) %MON dynstat_vvel_del2            =   2.6334605490182E-07
(PID.TID 0000.0001) %MON dynstat_wvel_max             =   2.2347232491605E-04
(PID.TID 0000.0001) %MON dynstat_wvel_min             =  -3.6657410717176E-04
(PID.TID 0000.0001) %MON dynstat_wvel_mean            =  -1.3043052218076E-06
(PID.TID 0000.0001) %MON dynstat_wvel_sd              =   2.9116072610124E-05
(PID.TID 0000.0001) %MON dynstat_wvel_del2            =   1.8093277925656E-07
(PID.TID 0000.0001) %MON dynstat_theta_max            =   1.2000000000000E+00
(PID.TID 0000.0001) %MON dynstat_theta_min            =  -1.0000000000000E+00
(PID.TID 0000.0001) %MON dynstat_theta_mean           =   5.6550337530261E-01
(PID.TID 0000.0001) %MON dynstat_theta_sd             =   8.4906769940471E-01
(PID.TID 0000.0001) %MON dynstat_theta_del2           =   3.0970961818728E-07
(PID.TID 0000.0001) %MON dynstat_salt_max             =   3.4700000000000E+01
(PID.TID 0000.0001) %MON dynstat_salt_min             =   3.4000000000000E+01
(PID.TID 0000.0001) %MON dynstat_salt_mean            =   3.4498114388261E+01
(PID.TID 0000.0001) %MON dynstat_salt_sd              =   2.7015797272490E-01
(PID.TID 0000.0001) %MON dynstat_salt_del2            =   9.9322152309583E-08
(PID.TID 0000.0001) %MON advcfl_uvel_max              =   1.9623783602885E-05
(PID.TID 0000.0001) %MON advcfl_vvel_max              =   9.7779144099164E-05
(PID.TID 0000.0001) %MON advcfl_wvel_max              =   1.8328705358588E-03
(PID.TID 0000.0001) %MON advcfl_W_hf_max              =   1.8328705358588E-03
(PID.TID 0000.0001) %MON pe_b_mean                    =  -8.1320513148788E-01
(PID.TID 0000.0001) %MON ke_max                       =   2.9521548516310E-07
(PID.TID 0000.0001) %MON ke_mean                      =   8.1854753503482E-09
(PID.TID 0000.0001) %MON ke_vol                       =   4.6182512273404E+12
(PID.TID 0000.0001) // =======================================================
(PID.TID 0000.0001) // End MONITOR dynamic field statistics
(PID.TID 0000.0001) // =======================================================
(PID.TID 0000.0001) // =======================================================
(PID.TID 0000.0001) // Begin OBCS MONITOR field statistics
(PID.TID 0000.0001) // =======================================================
(PID.TID 0000.0001) %MON obc_N_vVel_max               =   2.1963815274288E-04
(PID.TID 0000.0001) %MON obc_N_vVel_min               =   2.1963815274287E-04
(PID.TID 0000.0001) %MON obc_N_vVel_mean              =   2.1963815274288E-04
(PID.TID 0000.0001) %MON obc_N_vVel_sd                =  -4.6917684344008E-21
(PID.TID 0000.0001) %MON obc_N_vVel_Int               =   1.4496118081030E+04
(PID.TID 0000.0001) // =======================================================
(PID.TID 0000.0001) // End OBCS MONITOR field statistics
(PID.TID 0000.0001) // =======================================================
 cg2d: Sum(rhs),rhsMax =   4.70519256746891E+00  3.49527079561367E+02
(PID.TID 0000.0001)      cg2d_init_res =   9.83209794625619E-06
(PID.TID 0000.0001)      cg2d_iters(min,last) =      -1      89
(PID.TID 0000.0001)      cg2d_last_res =   9.59986330290800E-12
(PID.TID 0000.0001) // =======================================================
(PID.TID 0000.0001) // Begin MONITOR dynamic field statistics
(PID.TID 0000.0001) // =======================================================
(PID.TID 0000.0001) %MON time_tsnumber                =                    19
(PID.TID 0000.0001) %MON time_secondsf                =   1.9000000000000E+03
(PID.TID 0000.0001) %MON dynstat_eta_max              =   4.9788093588699E+00
(PID.TID 0000.0001) %MON dynstat_eta_min              =  -1.5069345623997E+01
(PID.TID 0000.0001) %MON dynstat_eta_mean             =  -3.0455411423727E+00
(PID.TID 0000.0001) %MON dynstat_eta_sd               =   5.1309655789682E+00
(PID.TID 0000.0001) %MON dynstat_eta_del2             =   1.8973406254244E-01
(PID.TID 0000.0001) %MON dynstat_uvel_max             =   1.8923888905276E-04
(PID.TID 0000.0001) %MON dynstat_uvel_min             =  -1.1814539423360E-04
(PID.TID 0000.0001) %MON dynstat_uvel_mean            =   7.6639729068453E-06
(PID.TID 0000.0001) %MON dynstat_uvel_sd              =   2.7132001661952E-05
(PID.TID 0000.0001) %MON dynstat_uvel_del2            =   1.8634161129983E-08
(PID.TID 0000.0001) %MON dynstat_vvel_max             =   7.9473336898239E-04
(PID.TID 0000.0001) %MON dynstat_vvel_min             =  -8.7514163060480E-04
(PID.TID 0000.0001) %MON dynstat_vvel_mean            =  -8.3545804804042E-05
(PID.TID 0000.0001) %MON dynstat_vvel_sd              =   9.3802276694786E-05
(PID.TID 0000.0001) %MON dynstat_vvel_del2            =   2.7960491454801E-07
(PID.TID 0000.0001) %MON dynstat_wvel_max             =   2.2342883633446E-04
(PID.TID 0000.0001) %MON dynstat_wvel_min             =  -4.2814451242758E-04
(PID.TID 0000.0001) %MON dynstat_wvel_mean            =  -1.2346296222853E-06
(PID.TID 0000.0001) %MON dynstat_wvel_sd              =   3.3087393274422E-05
(PID.TID 0000.0001) %MON dynstat_wvel_del2            =   2.0034328028057E-07
(PID.TID 0000.0001) %MON dynstat_theta_max            =   1.2000000000000E+00
(PID.TID 0000.0001) %MON dynstat_theta_min            =  -1.0000000000000E+00
(PID.TID 0000.0001) %MON dynstat_theta_mean           =   5.6550323825048E-01
(PID.TID 0000.0001) %MON dynstat_theta_sd             =   8.4906767816081E-01
(PID.TID 0000.0001) %MON dynstat_theta_del2           =   2.6979772348262E-07
(PID.TID 0000.0001) %MON dynstat_salt_max             =   3.4700000000000E+01
(PID.TID 0000.0001) %MON dynstat_salt_min             =   3.4000000000000E+01
(PID.TID 0000.0001) %MON dynstat_salt_mean            =   3.4498114328853E+01
(PID.TID 0000.0001) %MON dynstat_salt_sd              =   2.7015796732350E-01
(PID.TID 0000.0001) %MON dynstat_salt_del2            =   8.6746424196954E-08
(PID.TID 0000.0001) %MON advcfl_uvel_max              =   1.8923888905276E-05
(PID.TID 0000.0001) %MON advcfl_vvel_max              =   8.7514163060480E-05
(PID.TID 0000.0001) %MON advcfl_wvel_max              =   2.1407225621379E-03
(PID.TID 0000.0001) %MON advcfl_W_hf_max              =   2.1407225621379E-03
(PID.TID 0000.0001) %MON pe_b_mean                    =  -8.1317993504530E-01
(PID.TID 0000.0001) %MON ke_max                       =   2.3012845750234E-07
(PID.TID 0000.0001) %MON ke_mean                      =   8.2710283232475E-09
(PID.TID 0000.0001) %MON ke_vol                       =   4.6182497884367E+12
(PID.TID 0000.0001) // =======================================================
(PID.TID 0000.0001) // End MONITOR dynamic field statistics
(PID.TID 0000.0001) // =======================================================
(PID.TID 0000.0001) // =======================================================
(PID.TID 0000.0001) // Begin OBCS MONITOR field statistics
(PID.TID 0000.0001) // =======================================================
(PID.TID 0000.0001) %MON obc_N_vVel_max               =   4.7504614342062E-05
(PID.TID 0000.0001) %MON obc_N_vVel_min               =   4.7504614342061E-05
(PID.TID 0000.0001) %MON obc_N_vVel_mean              =   4.7504614342062E-05
(PID.TID 0000.0001) %MON obc_N_vVel_sd                =  -9.2230638299663E-23
(PID.TID 0000.0001) %MON obc_N_vVel_Int               =   3.1353045465761E+03
(PID.TID 0000.0001) // =======================================================
(PID.TID 0000.0001) // End OBCS MONITOR field statistics
(PID.TID 0000.0001) // =======================================================
 cg2d: Sum(rhs),rhsMax =   4.70500197911808E+00  3.49527103138448E+02
(PID.TID 0000.0001)      cg2d_init_res =   1.23830846410391E-05
(PID.TID 0000.0001)      cg2d_iters(min,last) =      -1      91
(PID.TID 0000.0001)      cg2d_last_res =   9.72625286417054E-12
(PID.TID 0000.0001) // =======================================================
(PID.TID 0000.0001) // Begin MONITOR dynamic field statistics
(PID.TID 0000.0001) // =======================================================
(PID.TID 0000.0001) %MON time_tsnumber                =                    20
(PID.TID 0000.0001) %MON time_secondsf                =   2.0000000000000E+03
(PID.TID 0000.0001) %MON dynstat_eta_max              =   4.9790444706329E+00
(PID.TID 0000.0001) %MON dynstat_eta_min              =  -1.5068654783650E+01
(PID.TID 0000.0001) %MON dynstat_eta_mean             =  -3.0454179852256E+00
(PID.TID 0000.0001) %MON dynstat_eta_sd               =   5.1307635902548E+00
(PID.TID 0000.0001) %MON dynstat_eta_del2             =   1.8973406518878E-01
(PID.TID 0000.0001) %MON dynstat_uvel_max             =   1.8005484739692E-04
(PID.TID 0000.0001) %MON dynstat_uvel_min             =  -1.2135432209015E-04
(PID.TID 0000.0001) %MON dynstat_uvel_mean            =   5.6115011461229E-06
(PID.TID 0000.0001) %MON dynstat_uvel_sd              =   2.6653899379666E-05
(PID.TID 0000.0001) %MON dynstat_uvel_del2            =   1.8409702168434E-08
(PID.TID 0000.0001) %MON dynstat_vvel_max             =   6.2699151732737E-04
(PID.TID 0000.0001) %MON dynstat_vvel_min             =  -1.0224330811799E-03
(PID.TID 0000.0001) %MON dynstat_vvel_mean            =  -2.4681382326268E-04
(PID.TID 0000.0001) %MON dynstat_vvel_sd              =   1.1419334675245E-04
(PID.TID 0000.0001) %MON dynstat_vvel_del2            =   2.9044192400444E-07
(PID.TID 0000.0001) %MON dynstat_wvel_max             =   2.1707709622097E-04
(PID.TID 0000.0001) %MON dynstat_wvel_min             =  -4.7856496853157E-04
(PID.TID 0000.0001) %MON dynstat_wvel_mean            =  -1.1719582465499E-06
(PID.TID 0000.0001) %MON dynstat_wvel_sd              =   3.6342301273073E-05
(PID.TID 0000.0001) %MON dynstat_wvel_del2            =   2.1406331252469E-07
(PID.TID 0000.0001) %MON dynstat_theta_max            =   1.2000000000000E+00
(PID.TID 0000.0001) %MON dynstat_theta_min            =  -1.0000000000000E+00
(PID.TID 0000.0001) %MON dynstat_theta_mean           =   5.6550301631247E-01
(PID.TID 0000.0001) %MON dynstat_theta_sd             =   8.4906769001049E-01
(PID.TID 0000.0001) %MON dynstat_theta_del2           =   2.5703348974664E-07
(PID.TID 0000.0001) %MON dynstat_salt_max             =   3.4700000000000E+01
(PID.TID 0000.0001) %MON dynstat_salt_min             =   3.4000000000000E+01
(PID.TID 0000.0001) %MON dynstat_salt_mean            =   3.4498114242434E+01
(PID.TID 0000.0001) %MON dynstat_salt_sd              =   2.7015797247942E-01
(PID.TID 0000.0001) %MON dynstat_salt_del2            =   8.2731798321098E-08
(PID.TID 0000.0001) %MON advcfl_uvel_max              =   1.8005484739692E-05
(PID.TID 0000.0001) %MON advcfl_vvel_max              =   1.0224330811799E-04
(PID.TID 0000.0001) %MON advcfl_wvel_max              =   2.3928248426578E-03
(PID.TID 0000.0001) %MON advcfl_W_hf_max              =   2.3928248426578E-03
(PID.TID 0000.0001) %MON pe_b_mean                    =  -8.1312053316788E-01
(PID.TID 0000.0001) %MON ke_max                       =   3.2453563435050E-07
(PID.TID 0000.0001) %MON ke_mean                      =   3.7298725422554E-08
(PID.TID 0000.0001) %MON ke_vol                       =   4.6182494856143E+12
(PID.TID 0000.0001) // =======================================================
(PID.TID 0000.0001) // End MONITOR dynamic field statistics
(PID.TID 0000.0001) // =======================================================
(PID.TID 0000.0001) // =======================================================
(PID.TID 0000.0001) // Begin OBCS MONITOR field statistics
(PID.TID 0000.0001) // =======================================================
(PID.TID 0000.0001) %MON obc_N_vVel_max               =  -1.0921900854204E-04
(PID.TID 0000.0001) %MON obc_N_vVel_min               =  -1.0921900854205E-04
(PID.TID 0000.0001) %MON obc_N_vVel_mean              =  -1.0921900854205E-04
(PID.TID 0000.0001) %MON obc_N_vVel_sd                =  -1.0571368228428E-21
(PID.TID 0000.0001) %MON obc_N_vVel_Int               =  -7.2084545637752E+03
(PID.TID 0000.0001) // =======================================================
(PID.TID 0000.0001) // End OBCS MONITOR field statistics
(PID.TID 0000.0001) // =======================================================
 cg2d: Sum(rhs),rhsMax =   4.70457057694842E+00  3.49527162444601E+02
(PID.TID 0000.0001)      cg2d_init_res =   1.54751406893682E-05
(PID.TID 0000.0001)      cg2d_iters(min,last) =      -1      93
(PID.TID 0000.0001)      cg2d_last_res =   7.90308935967998E-12
(PID.TID 0000.0001) // =======================================================
(PID.TID 0000.0001) // Begin MONITOR dynamic field statistics
(PID.TID 0000.0001) // =======================================================
(PID.TID 0000.0001) %MON time_tsnumber                =                    21
(PID.TID 0000.0001) %MON time_secondsf                =   2.1000000000000E+03
(PID.TID 0000.0001) %MON dynstat_eta_max              =   4.9793462329418E+00
(PID.TID 0000.0001) %MON dynstat_eta_min              =  -1.5067506693031E+01
(PID.TID 0000.0001) %MON dynstat_eta_mean             =  -3.0451392671873E+00
(PID.TID 0000.0001) %MON dynstat_eta_sd               =   5.1305202436904E+00
(PID.TID 0000.0001) %MON dynstat_eta_del2             =   1.8973406792313E-01
(PID.TID 0000.0001) %MON dynstat_uvel_max             =   1.7263638380438E-04
(PID.TID 0000.0001) %MON dynstat_uvel_min             =  -1.2422588642874E-04
(PID.TID 0000.0001) %MON dynstat_uvel_mean            =   3.9777745395363E-06
(PID.TID 0000.0001) %MON dynstat_uvel_sd              =   2.6209744141043E-05
(PID.TID 0000.0001) %MON dynstat_uvel_del2            =   1.8195524951635E-08
(PID.TID 0000.0001) %MON dynstat_vvel_max             =   4.7309370191684E-04
(PID.TID 0000.0001) %MON dynstat_vvel_min             =  -1.1380754273866E-03
(PID.TID 0000.0001) %MON dynstat_vvel_mean            =  -3.9130776164033E-04
(PID.TID 0000.0001) %MON dynstat_vvel_sd              =   1.3561476332268E-04
(PID.TID 0000.0001) %MON dynstat_vvel_del2            =   2.9530900171237E-07
(PID.TID 0000.0001) %MON dynstat_wvel_max             =   2.0467233353162E-04
(PID.TID 0000.0001) %MON dynstat_wvel_min             =  -5.1632858707554E-04
(PID.TID 0000.0001) %MON dynstat_wvel_mean            =  -1.1037347357243E-06
(PID.TID 0000.0001) %MON dynstat_wvel_sd              =   3.8771555140136E-05
(PID.TID 0000.0001) %MON dynstat_wvel_del2            =   2.2184483725418E-07
(PID.TID 0000.0001) %MON dynstat_theta_max            =   1.2000000000000E+00
(PID.TID 0000.0001) %MON dynstat_theta_min            =  -1.0000000000000E+00
(PID.TID 0000.0001) %MON dynstat_theta_mean           =   5.6550272399366E-01
(PID.TID 0000.0001) %MON dynstat_theta_sd             =   8.4906772940353E-01
(PID.TID 0000.0001) %MON dynstat_theta_del2           =   2.8077161378621E-07
(PID.TID 0000.0001) %MON dynstat_salt_max             =   3.4700000000000E+01
(PID.TID 0000.0001) %MON dynstat_salt_min             =   3.4000000000000E+01
(PID.TID 0000.0001) %MON dynstat_salt_mean            =   3.4498114133622E+01
(PID.TID 0000.0001) %MON dynstat_salt_sd              =   2.7015798642538E-01
(PID.TID 0000.0001) %MON dynstat_salt_del2            =   9.0202004092756E-08
(PID.TID 0000.0001) %MON advcfl_uvel_max              =   1.7263638380438E-05
(PID.TID 0000.0001) %MON advcfl_vvel_max              =   1.1380754273866E-04
(PID.TID 0000.0001) %MON advcfl_wvel_max              =   2.5816429353777E-03
(PID.TID 0000.0001) %MON advcfl_W_hf_max              =   2.5816429353777E-03
(PID.TID 0000.0001) %MON pe_b_mean                    =  -8.1303091498918E-01
(PID.TID 0000.0001) %MON ke_max                       =   4.3244364846752E-07
(PID.TID 0000.0001) %MON ke_mean                      =   8.5876570301914E-08
(PID.TID 0000.0001) %MON ke_vol                       =   4.6182502171678E+12
(PID.TID 0000.0001) // =======================================================
(PID.TID 0000.0001) // End MONITOR dynamic field statistics
(PID.TID 0000.0001) // =======================================================
(PID.TID 0000.0001) // =======================================================
(PID.TID 0000.0001) // Begin OBCS MONITOR field statistics
(PID.TID 0000.0001) // =======================================================
(PID.TID 0000.0001) %MON obc_N_vVel_max               =  -2.4922381733619E-04
(PID.TID 0000.0001) %MON obc_N_vVel_min               =  -2.4922381733619E-04
(PID.TID 0000.0001) %MON obc_N_vVel_mean              =  -2.4922381733619E-04
(PID.TID 0000.0001) %MON obc_N_vVel_sd                =   2.1522572871980E-11
(PID.TID 0000.0001) %MON obc_N_vVel_Int               =  -1.6448771944188E+04
(PID.TID 0000.0001) // =======================================================
(PID.TID 0000.0001) // End OBCS MONITOR field statistics
(PID.TID 0000.0001) // =======================================================
 cg2d: Sum(rhs),rhsMax =   4.70392845121515E+00  3.49527251334520E+02
(PID.TID 0000.0001)      cg2d_init_res =   1.83865873389308E-05
(PID.TID 0000.0001)      cg2d_iters(min,last) =      -1      93
(PID.TID 0000.0001)      cg2d_last_res =   9.42489046250941E-12
(PID.TID 0000.0001) // =======================================================
(PID.TID 0000.0001) // Begin MONITOR dynamic field statistics
(PID.TID 0000.0001) // =======================================================
(PID.TID 0000.0001) %MON time_tsnumber                =                    22
(PID.TID 0000.0001) %MON time_secondsf                =   2.2000000000000E+03
(PID.TID 0000.0001) %MON dynstat_eta_max              =   4.9797156718121E+00
(PID.TID 0000.0001) %MON dynstat_eta_min              =  -1.5065988015969E+01
(PID.TID 0000.0001) %MON dynstat_eta_mean             =  -3.0447244111620E+00
(PID.TID 0000.0001) %MON dynstat_eta_sd               =   5.1302437386601E+00
(PID.TID 0000.0001) %MON dynstat_eta_del2             =   1.8973407068254E-01
(PID.TID 0000.0001) %MON dynstat_uvel_max             =   1.6932578984474E-04
(PID.TID 0000.0001) %MON dynstat_uvel_min             =  -1.2669253452469E-04
(PID.TID 0000.0001) %MON dynstat_uvel_mean            =   2.8227998088682E-06
(PID.TID 0000.0001) %MON dynstat_uvel_sd              =   2.5863046560177E-05
(PID.TID 0000.0001) %MON dynstat_uvel_del2            =   1.8021852323189E-08
(PID.TID 0000.0001) %MON dynstat_vvel_max             =   3.3326877398920E-04
(PID.TID 0000.0001) %MON dynstat_vvel_min             =  -1.2319878772007E-03
(PID.TID 0000.0001) %MON dynstat_vvel_mean            =  -5.1460830471491E-04
(PID.TID 0000.0001) %MON dynstat_vvel_sd              =   1.5415799095246E-04
(PID.TID 0000.0001) %MON dynstat_vvel_del2            =   2.9407488299581E-07
(PID.TID 0000.0001) %MON dynstat_wvel_max             =   1.8589950604980E-04
(PID.TID 0000.0001) %MON dynstat_wvel_min             =  -5.4189652373417E-04
(PID.TID 0000.0001) %MON dynstat_wvel_mean            =  -1.0162517202477E-06
(PID.TID 0000.0001) %MON dynstat_wvel_sd              =   4.0322248645404E-05
(PID.TID 0000.0001) %MON dynstat_wvel_del2            =   2.2363223759789E-07
(PID.TID 0000.0001) %MON dynstat_theta_max            =   1.2000000000000E+00
(PID.TID 0000.0001) %MON dynstat_theta_min            =  -1.0000000000000E+00
(PID.TID 0000.0001) %MON dynstat_theta_mean           =   5.6550237586622E-01
(PID.TID 0000.0001) %MON dynstat_theta_sd             =   8.4906779076252E-01
(PID.TID 0000.0001) %MON dynstat_theta_del2           =   3.3456037518922E-07
(PID.TID 0000.0001) %MON dynstat_salt_max             =   3.4700000000000E+01
(PID.TID 0000.0001) %MON dynstat_salt_min             =   3.4000000000000E+01
(PID.TID 0000.0001) %MON dynstat_salt_mean            =   3.4498114007052E+01
(PID.TID 0000.0001) %MON dynstat_salt_sd              =   2.7015800737632E-01
(PID.TID 0000.0001) %MON dynstat_salt_del2            =   1.0717213906869E-07
(PID.TID 0000.0001) %MON advcfl_uvel_max              =   1.6932578984474E-05
(PID.TID 0000.0001) %MON advcfl_vvel_max              =   1.2319878772007E-04
(PID.TID 0000.0001) %MON advcfl_wvel_max              =   2.7094826186709E-03
(PID.TID 0000.0001) %MON advcfl_W_hf_max              =   2.7094826186709E-03
(PID.TID 0000.0001) %MON pe_b_mean                    =  -8.1291565283754E-01
(PID.TID 0000.0001) %MON ke_max                       =   5.3232857188719E-07
(PID.TID 0000.0001) %MON ke_mean                      =   1.4412670920348E-07
(PID.TID 0000.0001) %MON ke_vol                       =   4.6182518727529E+12
(PID.TID 0000.0001) // =======================================================
(PID.TID 0000.0001) // End MONITOR dynamic field statistics
(PID.TID 0000.0001) // =======================================================
(PID.TID 0000.0001) // =======================================================
(PID.TID 0000.0001) // Begin OBCS MONITOR field statistics
(PID.TID 0000.0001) // =======================================================
(PID.TID 0000.0001) %MON obc_N_vVel_max               =  -3.7174801277527E-04
(PID.TID 0000.0001) %MON obc_N_vVel_min               =  -3.7174801277528E-04
(PID.TID 0000.0001) %MON obc_N_vVel_mean              =  -3.7174801277527E-04
(PID.TID 0000.0001) %MON obc_N_vVel_sd                =   7.5613969568900E-11
(PID.TID 0000.0001) %MON obc_N_vVel_Int               =  -2.4535368843168E+04
(PID.TID 0000.0001) // =======================================================
(PID.TID 0000.0001) // End OBCS MONITOR field statistics
(PID.TID 0000.0001) // =======================================================
 cg2d: Sum(rhs),rhsMax =   4.70310675773365E+00  3.49527367336677E+02
(PID.TID 0000.0001)      cg2d_init_res =   2.07697032397226E-05
(PID.TID 0000.0001)      cg2d_iters(min,last) =      -1      94
(PID.TID 0000.0001)      cg2d_last_res =   9.56508961929618E-12
(PID.TID 0000.0001) // =======================================================
(PID.TID 0000.0001) // Begin MONITOR dynamic field statistics
(PID.TID 0000.0001) // =======================================================
(PID.TID 0000.0001) %MON time_tsnumber                =                    23
(PID.TID 0000.0001) %MON time_secondsf                =   2.3000000000000E+03
(PID.TID 0000.0001) %MON dynstat_eta_max              =   4.9801600358408E+00
(PID.TID 0000.0001) %MON dynstat_eta_min              =  -1.5064205839322E+01
(PID.TID 0000.0001) %MON dynstat_eta_mean             =  -3.0441935617296E+00
(PID.TID 0000.0001) %MON dynstat_eta_sd               =   5.1299426876449E+00
(PID.TID 0000.0001) %MON dynstat_eta_del2             =   1.8973407339515E-01
(PID.TID 0000.0001) %MON dynstat_uvel_max             =   1.7036939384463E-04
(PID.TID 0000.0001) %MON dynstat_uvel_min             =  -1.2927057963743E-04
(PID.TID 0000.0001) %MON dynstat_uvel_mean            =   2.0952627619621E-06
(PID.TID 0000.0001) %MON dynstat_uvel_sd              =   2.5624691957479E-05
(PID.TID 0000.0001) %MON dynstat_uvel_del2            =   1.7913465587790E-08
(PID.TID 0000.0001) %MON dynstat_vvel_max             =   2.0832410502791E-04
(PID.TID 0000.0001) %MON dynstat_vvel_min             =  -1.3008214931872E-03
(PID.TID 0000.0001) %MON dynstat_vvel_mean            =  -6.1484566320463E-04
(PID.TID 0000.0001) %MON dynstat_vvel_sd              =   1.6812043587518E-04
(PID.TID 0000.0001) %MON dynstat_vvel_del2            =   2.8696939819725E-07
(PID.TID 0000.0001) %MON dynstat_wvel_max             =   1.6163927051583E-04
(PID.TID 0000.0001) %MON dynstat_wvel_min             =  -5.5375764012191E-04
(PID.TID 0000.0001) %MON dynstat_wvel_mean            =  -8.9881570671767E-07
(PID.TID 0000.0001) %MON dynstat_wvel_sd              =   4.0979611154301E-05
(PID.TID 0000.0001) %MON dynstat_wvel_del2            =   2.1953706227811E-07
(PID.TID 0000.0001) %MON dynstat_theta_max            =   1.2000000000000E+00
(PID.TID 0000.0001) %MON dynstat_theta_min            =  -1.0000000000000E+00
(PID.TID 0000.0001) %MON dynstat_theta_mean           =   5.6550198504582E-01
(PID.TID 0000.0001) %MON dynstat_theta_sd             =   8.4906786872482E-01
(PID.TID 0000.0001) %MON dynstat_theta_del2           =   4.0479194946249E-07
(PID.TID 0000.0001) %MON dynstat_salt_max             =   3.4700000000000E+01
(PID.TID 0000.0001) %MON dynstat_salt_min             =   3.4000000000000E+01
(PID.TID 0000.0001) %MON dynstat_salt_mean            =   3.4498113866898E+01
(PID.TID 0000.0001) %MON dynstat_salt_sd              =   2.7015803361060E-01
(PID.TID 0000.0001) %MON dynstat_salt_del2            =   1.2938727208574E-07
(PID.TID 0000.0001) %MON advcfl_uvel_max              =   1.7036939384463E-05
(PID.TID 0000.0001) %MON advcfl_vvel_max              =   1.3008214931872E-04
(PID.TID 0000.0001) %MON advcfl_wvel_max              =   2.7687882006095E-03
(PID.TID 0000.0001) %MON advcfl_W_hf_max              =   2.7687882006095E-03
(PID.TID 0000.0001) %MON pe_b_mean                    =  -8.1277978696619E-01
(PID.TID 0000.0001) %MON ke_max                       =   6.1930391749764E-07
(PID.TID 0000.0001) %MON ke_mean                      =   2.0265736701372E-07
(PID.TID 0000.0001) %MON ke_vol                       =   4.6182543369977E+12
(PID.TID 0000.0001) // =======================================================
(PID.TID 0000.0001) // End MONITOR dynamic field statistics
(PID.TID 0000.0001) // =======================================================
(PID.TID 0000.0001) // =======================================================
(PID.TID 0000.0001) // Begin OBCS MONITOR field statistics
(PID.TID 0000.0001) // =======================================================
(PID.TID 0000.0001) %MON obc_N_vVel_max               =  -4.7614208656120E-04
(PID.TID 0000.0001) %MON obc_N_vVel_min               =  -4.7614208656121E-04
(PID.TID 0000.0001) %MON obc_N_vVel_mean              =  -4.7614208656121E-04
(PID.TID 0000.0001) %MON obc_N_vVel_sd                =  -1.6517142471459E-20
(PID.TID 0000.0001) %MON obc_N_vVel_Int               =  -3.1425377713040E+04
(PID.TID 0000.0001) // =======================================================
(PID.TID 0000.0001) // End OBCS MONITOR field statistics
(PID.TID 0000.0001) // =======================================================
 cg2d: Sum(rhs),rhsMax =   4.70213791129600E+00  3.49527509757907E+02
(PID.TID 0000.0001)      cg2d_init_res =   2.24736051628981E-05
(PID.TID 0000.0001)      cg2d_iters(min,last) =      -1      95
(PID.TID 0000.0001)      cg2d_last_res =   8.86154669569861E-12
(PID.TID 0000.0001) // =======================================================
(PID.TID 0000.0001) // Begin MONITOR dynamic field statistics
(PID.TID 0000.0001) // =======================================================
(PID.TID 0000.0001) %MON time_tsnumber                =                    24
(PID.TID 0000.0001) %MON time_secondsf                =   2.4000000000000E+03
(PID.TID 0000.0001) %MON dynstat_eta_max              =   4.9806862527170E+00
(PID.TID 0000.0001) %MON dynstat_eta_min              =  -1.5062270090966E+01
(PID.TID 0000.0001) %MON dynstat_eta_mean             =  -3.0435676938399E+00
(PID.TID 0000.0001) %MON dynstat_eta_sd               =   5.1296262014638E+00
(PID.TID 0000.0001) %MON dynstat_eta_del2             =   1.8973407598948E-01
(PID.TID 0000.0001) %MON dynstat_uvel_max             =   1.7286808957051E-04
(PID.TID 0000.0001) %MON dynstat_uvel_min             =  -1.3316081459566E-04
(PID.TID 0000.0001) %MON dynstat_uvel_mean            =   1.6697227624985E-06
(PID.TID 0000.0001) %MON dynstat_uvel_sd              =   2.5439031494461E-05
(PID.TID 0000.0001) %MON dynstat_uvel_del2            =   1.7888586434286E-08
(PID.TID 0000.0001) %MON dynstat_vvel_max             =   9.9485430597568E-05
(PID.TID 0000.0001) %MON dynstat_vvel_min             =  -1.3359479507357E-03
(PID.TID 0000.0001) %MON dynstat_vvel_mean            =  -6.9076142339374E-04
(PID.TID 0000.0001) %MON dynstat_vvel_sd              =   1.7706682675269E-04
(PID.TID 0000.0001) %MON dynstat_vvel_del2            =   2.7458436211450E-07
(PID.TID 0000.0001) %MON dynstat_wvel_max             =   1.3231416147410E-04
(PID.TID 0000.0001) %MON dynstat_wvel_min             =  -5.5304228332220E-04
(PID.TID 0000.0001) %MON dynstat_wvel_mean            =  -7.4654648929947E-07
(PID.TID 0000.0001) %MON dynstat_wvel_sd              =   4.0761138518801E-05
(PID.TID 0000.0001) %MON dynstat_wvel_del2            =   2.0984573452421E-07
(PID.TID 0000.0001) %MON dynstat_theta_max            =   1.2000000000000E+00
(PID.TID 0000.0001) %MON dynstat_theta_min            =  -1.0000000000000E+00
(PID.TID 0000.0001) %MON dynstat_theta_mean           =   5.6550156242626E-01
(PID.TID 0000.0001) %MON dynstat_theta_sd             =   8.4906795823889E-01
(PID.TID 0000.0001) %MON dynstat_theta_del2           =   4.8052627219705E-07
(PID.TID 0000.0001) %MON dynstat_salt_max             =   3.4700000000000E+01
(PID.TID 0000.0001) %MON dynstat_salt_min             =   3.4000000000000E+01
(PID.TID 0000.0001) %MON dynstat_salt_mean            =   3.4498113716625E+01
(PID.TID 0000.0001) %MON dynstat_salt_sd              =   2.7015806350813E-01
(PID.TID 0000.0001) %MON dynstat_salt_del2            =   1.5338607759079E-07
(PID.TID 0000.0001) %MON advcfl_uvel_max              =   1.7286808957051E-05
(PID.TID 0000.0001) %MON advcfl_vvel_max              =   1.3359479507357E-04
(PID.TID 0000.0001) %MON advcfl_wvel_max              =   2.7652114166110E-03
(PID.TID 0000.0001) %MON advcfl_W_hf_max              =   2.7652114166110E-03
(PID.TID 0000.0001) %MON pe_b_mean                    =  -8.1262867577463E-01
(PID.TID 0000.0001) %MON ke_max                       =   6.8952827854608E-07
(PID.TID 0000.0001) %MON ke_mean                      =   2.5343531462440E-07
(PID.TID 0000.0001) %MON ke_vol                       =   4.6182574902433E+12
(PID.TID 0000.0001) // =======================================================
(PID.TID 0000.0001) // End MONITOR dynamic field statistics
(PID.TID 0000.0001) // =======================================================
(PID.TID 0000.0001) // =======================================================
(PID.TID 0000.0001) // Begin OBCS MONITOR field statistics
(PID.TID 0000.0001) // =======================================================
(PID.TID 0000.0001) %MON obc_N_vVel_max               =  -5.6165870576068E-04
(PID.TID 0000.0001) %MON obc_N_vVel_min               =  -5.6165870576068E-04
(PID.TID 0000.0001) %MON obc_N_vVel_mean              =  -5.6165870576068E-04
(PID.TID 0000.0001) %MON obc_N_vVel_sd                =   3.3342626520286E-11
(PID.TID 0000.0001) %MON obc_N_vVel_Int               =  -3.7069474580205E+04
(PID.TID 0000.0001) // =======================================================
(PID.TID 0000.0001) // End OBCS MONITOR field statistics
(PID.TID 0000.0001) // =======================================================
 cg2d: Sum(rhs),rhsMax =   4.70105577985393E+00  3.49527678246088E+02
(PID.TID 0000.0001)      cg2d_init_res =   2.34589430845410E-05
(PID.TID 0000.0001)      cg2d_iters(min,last) =      -1      95
(PID.TID 0000.0001)      cg2d_last_res =   9.22127660884245E-12
(PID.TID 0000.0001) // =======================================================
(PID.TID 0000.0001) // Begin MONITOR dynamic field statistics
(PID.TID 0000.0001) // =======================================================
(PID.TID 0000.0001) %MON time_tsnumber                =                    25
(PID.TID 0000.0001) %MON time_secondsf                =   2.5000000000000E+03
(PID.TID 0000.0001) %MON dynstat_eta_max              =   4.9812960768477E+00
(PID.TID 0000.0001) %MON dynstat_eta_min              =  -1.5060280412099E+01
(PID.TID 0000.0001) %MON dynstat_eta_mean             =  -3.0428687259957E+00
(PID.TID 0000.0001) %MON dynstat_eta_sd               =   5.1293037805339E+00
(PID.TID 0000.0001) %MON dynstat_eta_del2             =   1.8973407839533E-01
(PID.TID 0000.0001) %MON dynstat_uvel_max             =   1.7410078307090E-04
(PID.TID 0000.0001) %MON dynstat_uvel_min             =  -1.3665309447813E-04
(PID.TID 0000.0001) %MON dynstat_uvel_mean            =   1.3900914519604E-06
(PID.TID 0000.0001) %MON dynstat_uvel_sd              =   2.5165977626380E-05
(PID.TID 0000.0001) %MON dynstat_uvel_del2            =   1.7955632279317E-08
(PID.TID 0000.0001) %MON dynstat_vvel_max             =   8.1726042058250E-06
(PID.TID 0000.0001) %MON dynstat_vvel_min             =  -1.3370149634152E-03
(PID.TID 0000.0001) %MON dynstat_vvel_mean            =  -7.4175562529618E-04
(PID.TID 0000.0001) %MON dynstat_vvel_sd              =   1.8129907125302E-04
(PID.TID 0000.0001) %MON dynstat_vvel_del2            =   2.5793019037355E-07
(PID.TID 0000.0001) %MON dynstat_wvel_max             =   1.3954877901226E-04
(PID.TID 0000.0001) %MON dynstat_wvel_min             =  -5.3892075023107E-04
(PID.TID 0000.0001) %MON dynstat_wvel_mean            =  -5.6138694781855E-07
(PID.TID 0000.0001) %MON dynstat_wvel_sd              =   3.9718017024206E-05
(PID.TID 0000.0001) %MON dynstat_wvel_del2            =   1.9505860963163E-07
(PID.TID 0000.0001) %MON dynstat_theta_max            =   1.2000000000000E+00
(PID.TID 0000.0001) %MON dynstat_theta_min            =  -1.0000000000000E+00
(PID.TID 0000.0001) %MON dynstat_theta_mean           =   5.6550111660768E-01
(PID.TID 0000.0001) %MON dynstat_theta_sd             =   8.4906805461241E-01
(PID.TID 0000.0001) %MON dynstat_theta_del2           =   5.5456379602778E-07
(PID.TID 0000.0001) %MON dynstat_salt_max             =   3.4700000000000E+01
(PID.TID 0000.0001) %MON dynstat_salt_min             =   3.4000000000000E+01
(PID.TID 0000.0001) %MON dynstat_salt_mean            =   3.4498113558969E+01
(PID.TID 0000.0001) %MON dynstat_salt_sd              =   2.7015809556910E-01
(PID.TID 0000.0001) %MON dynstat_salt_del2            =   1.7687395035584E-07
(PID.TID 0000.0001) %MON advcfl_uvel_max              =   1.7410078307090E-05
(PID.TID 0000.0001) %MON advcfl_vvel_max              =   1.3370149634152E-04
(PID.TID 0000.0001) %MON advcfl_wvel_max              =   2.6946037511554E-03
(PID.TID 0000.0001) %MON advcfl_W_hf_max              =   2.6946037511554E-03
(PID.TID 0000.0001) %MON pe_b_mean                    =  -8.1246781715326E-01
(PID.TID 0000.0001) %MON ke_max                       =   7.5535512480496E-07
(PID.TID 0000.0001) %MON ke_mean                      =   2.9043075086521E-07
(PID.TID 0000.0001) %MON ke_vol                       =   4.6182612078986E+12
(PID.TID 0000.0001) // =======================================================
(PID.TID 0000.0001) // End MONITOR dynamic field statistics
(PID.TID 0000.0001) // =======================================================
(PID.TID 0000.0001) // =======================================================
(PID.TID 0000.0001) // Begin OBCS MONITOR field statistics
(PID.TID 0000.0001) // =======================================================
(PID.TID 0000.0001) %MON obc_N_vVel_max               =  -6.2744867257758E-04
(PID.TID 0000.0001) %MON obc_N_vVel_min               =  -6.2744867257758E-04
(PID.TID 0000.0001) %MON obc_N_vVel_mean              =  -6.2744867257758E-04
(PID.TID 0000.0001) %MON obc_N_vVel_sd                =  -5.6115932755597E-21
(PID.TID 0000.0001) %MON obc_N_vVel_Int               =  -4.1411612390120E+04
(PID.TID 0000.0001) // =======================================================
(PID.TID 0000.0001) // End OBCS MONITOR field statistics
(PID.TID 0000.0001) // =======================================================
 cg2d: Sum(rhs),rhsMax =   4.69989563285207E+00  3.49527871743201E+02
(PID.TID 0000.0001)      cg2d_init_res =   2.37480786129965E-05
(PID.TID 0000.0001)      cg2d_iters(min,last) =      -1      95
(PID.TID 0000.0001)      cg2d_last_res =   9.18783941567787E-12
(PID.TID 0000.0001) // =======================================================
(PID.TID 0000.0001) // Begin MONITOR dynamic field statistics
(PID.TID 0000.0001) // =======================================================
(PID.TID 0000.0001) %MON time_tsnumber                =                    26
(PID.TID 0000.0001) %MON time_secondsf                =   2.6000000000000E+03
(PID.TID 0000.0001) %MON dynstat_eta_max              =   4.9819831506476E+00
(PID.TID 0000.0001) %MON dynstat_eta_min              =  -1.5058318970063E+01
(PID.TID 0000.0001) %MON dynstat_eta_mean             =  -3.0421194777147E+00
(PID.TID 0000.0001) %MON dynstat_eta_sd               =   5.1289850378040E+00
(PID.TID 0000.0001) %MON dynstat_eta_del2             =   1.8973408055132E-01
(PID.TID 0000.0001) %MON dynstat_uvel_max             =   1.7137782183640E-04
(PID.TID 0000.0001) %MON dynstat_uvel_min             =  -1.3975739795198E-04
(PID.TID 0000.0001) %MON dynstat_uvel_mean            =   1.1092340038001E-06
(PID.TID 0000.0001) %MON dynstat_uvel_sd              =   2.4649275441821E-05
(PID.TID 0000.0001) %MON dynstat_uvel_del2            =   1.8111187387337E-08
(PID.TID 0000.0001) %MON dynstat_vvel_max             =  -6.4308049960715E-05
(PID.TID 0000.0001) %MON dynstat_vvel_min             =  -1.3043360082010E-03
(PID.TID 0000.0001) %MON dynstat_vvel_mean            =  -7.6790883723082E-04
(PID.TID 0000.0001) %MON dynstat_vvel_sd              =   1.8143649361493E-04
(PID.TID 0000.0001) %MON dynstat_vvel_del2            =   2.3855069397077E-07
(PID.TID 0000.0001) %MON dynstat_wvel_max             =   1.4960934929907E-04
(PID.TID 0000.0001) %MON dynstat_wvel_min             =  -5.1274826246741E-04
(PID.TID 0000.0001) %MON dynstat_wvel_mean            =  -3.5143436829876E-07
(PID.TID 0000.0001) %MON dynstat_wvel_sd              =   3.7941467089934E-05
(PID.TID 0000.0001) %MON dynstat_wvel_del2            =   1.7596837082805E-07
(PID.TID 0000.0001) %MON dynstat_theta_max            =   1.2000000000000E+00
(PID.TID 0000.0001) %MON dynstat_theta_min            =  -1.0000000000000E+00
(PID.TID 0000.0001) %MON dynstat_theta_mean           =   5.6550065433246E-01
(PID.TID 0000.0001) %MON dynstat_theta_sd             =   8.4906815347500E-01
(PID.TID 0000.0001) %MON dynstat_theta_del2           =   6.2208691677928E-07
(PID.TID 0000.0001) %MON dynstat_salt_max             =   3.4700000000000E+01
(PID.TID 0000.0001) %MON dynstat_salt_min             =   3.4000000000000E+01
(PID.TID 0000.0001) %MON dynstat_salt_mean            =   3.4498113396077E+01
(PID.TID 0000.0001) %MON dynstat_salt_sd              =   2.7015812840207E-01
(PID.TID 0000.0001) %MON dynstat_salt_del2            =   1.9831100557572E-07
(PID.TID 0000.0001) %MON advcfl_uvel_max              =   1.7137782183640E-05
(PID.TID 0000.0001) %MON advcfl_vvel_max              =   1.3043360082010E-04
(PID.TID 0000.0001) %MON advcfl_wvel_max              =   2.5637413123370E-03
(PID.TID 0000.0001) %MON advcfl_W_hf_max              =   2.5637413123370E-03
(PID.TID 0000.0001) %MON pe_b_mean                    =  -8.1230265762868E-01
(PID.TID 0000.0001) %MON ke_max                       =   7.8769858489575E-07
(PID.TID 0000.0001) %MON ke_mean                      =   3.0997313087606E-07
(PID.TID 0000.0001) %MON ke_vol                       =   4.6182653597676E+12
(PID.TID 0000.0001) // =======================================================
(PID.TID 0000.0001) // End MONITOR dynamic field statistics
(PID.TID 0000.0001) // =======================================================
(PID.TID 0000.0001) // =======================================================
(PID.TID 0000.0001) // Begin OBCS MONITOR field statistics
(PID.TID 0000.0001) // =======================================================
(PID.TID 0000.0001) %MON obc_N_vVel_max               =  -6.7270105844103E-04
(PID.TID 0000.0001) %MON obc_N_vVel_min               =  -6.7270105844104E-04
(PID.TID 0000.0001) %MON obc_N_vVel_mean              =  -6.7270105844104E-04
(PID.TID 0000.0001) %MON obc_N_vVel_sd                =   5.9999083541591E-11
(PID.TID 0000.0001) %MON obc_N_vVel_Int               =  -4.4398269857108E+04
(PID.TID 0000.0001) // =======================================================
(PID.TID 0000.0001) // End OBCS MONITOR field statistics
(PID.TID 0000.0001) // =======================================================
 cg2d: Sum(rhs),rhsMax =   4.69869372338636E+00  3.49528087729526E+02
(PID.TID 0000.0001)      cg2d_init_res =   2.33916458857121E-05
(PID.TID 0000.0001)      cg2d_iters(min,last) =      -1      95
(PID.TID 0000.0001)      cg2d_last_res =   8.83874517971609E-12
(PID.TID 0000.0001) // =======================================================
(PID.TID 0000.0001) // Begin MONITOR dynamic field statistics
(PID.TID 0000.0001) // =======================================================
(PID.TID 0000.0001) %MON time_tsnumber                =                    27
(PID.TID 0000.0001) %MON time_secondsf                =   2.7000000000000E+03
(PID.TID 0000.0001) %MON dynstat_eta_max              =   4.9827319726405E+00
(PID.TID 0000.0001) %MON dynstat_eta_min              =  -1.5056448722314E+01
(PID.TID 0000.0001) %MON dynstat_eta_mean             =  -3.0413433925221E+00
(PID.TID 0000.0001) %MON dynstat_eta_sd               =   5.1286793110274E+00
(PID.TID 0000.0001) %MON dynstat_eta_del2             =   1.8973408240617E-01
(PID.TID 0000.0001) %MON dynstat_uvel_max             =   1.6406460558094E-04
(PID.TID 0000.0001) %MON dynstat_uvel_min             =  -1.4248918630976E-04
(PID.TID 0000.0001) %MON dynstat_uvel_mean            =   7.1773709893874E-07
(PID.TID 0000.0001) %MON dynstat_uvel_sd              =   2.3817801917778E-05
(PID.TID 0000.0001) %MON dynstat_uvel_del2            =   1.8340453062395E-08
(PID.TID 0000.0001) %MON dynstat_vvel_max             =  -6.9980187248575E-05
(PID.TID 0000.0001) %MON dynstat_vvel_min             =  -1.2645373732076E-03
(PID.TID 0000.0001) %MON dynstat_vvel_mean            =  -7.6997889414950E-04
(PID.TID 0000.0001) %MON dynstat_vvel_sd              =   1.7808915777599E-04
(PID.TID 0000.0001) %MON dynstat_vvel_del2            =   2.1868735845663E-07
(PID.TID 0000.0001) %MON dynstat_wvel_max             =   1.5772354979001E-04
(PID.TID 0000.0001) %MON dynstat_wvel_min             =  -4.7460756679238E-04
(PID.TID 0000.0001) %MON dynstat_wvel_mean            =  -1.2907610135292E-07
(PID.TID 0000.0001) %MON dynstat_wvel_sd              =   3.5573039372347E-05
(PID.TID 0000.0001) %MON dynstat_wvel_del2            =   1.5380898388941E-07
(PID.TID 0000.0001) %MON dynstat_theta_max            =   1.2000000000000E+00
(PID.TID 0000.0001) %MON dynstat_theta_min            =  -1.0000000000000E+00
(PID.TID 0000.0001) %MON dynstat_theta_mean           =   5.6550018119587E-01
(PID.TID 0000.0001) %MON dynstat_theta_sd             =   8.4906825071359E-01
(PID.TID 0000.0001) %MON dynstat_theta_del2           =   6.7971023276375E-07
(PID.TID 0000.0001) %MON dynstat_salt_max             =   3.4700000000000E+01
(PID.TID 0000.0001) %MON dynstat_salt_min             =   3.4000000000000E+01
(PID.TID 0000.0001) %MON dynstat_salt_mean            =   3.4498113229727E+01
(PID.TID 0000.0001) %MON dynstat_salt_sd              =   2.7015816070172E-01
(PID.TID 0000.0001) %MON dynstat_salt_del2            =   2.1661467733137E-07
(PID.TID 0000.0001) %MON advcfl_uvel_max              =   1.6406460558094E-05
(PID.TID 0000.0001) %MON advcfl_vvel_max              =   1.2645373732076E-04
(PID.TID 0000.0001) %MON advcfl_wvel_max              =   2.3730378339619E-03
(PID.TID 0000.0001) %MON advcfl_W_hf_max              =   2.3730378339619E-03
(PID.TID 0000.0001) %MON pe_b_mean                    =  -8.1213840850997E-01
(PID.TID 0000.0001) %MON ke_max                       =   7.7793290646064E-07
(PID.TID 0000.0001) %MON ke_mean                      =   3.1082482653178E-07
(PID.TID 0000.0001) %MON ke_vol                       =   4.6182698103024E+12
(PID.TID 0000.0001) // =======================================================
(PID.TID 0000.0001) // End MONITOR dynamic field statistics
(PID.TID 0000.0001) // =======================================================
(PID.TID 0000.0001) // =======================================================
(PID.TID 0000.0001) // Begin OBCS MONITOR field statistics
(PID.TID 0000.0001) // =======================================================
(PID.TID 0000.0001) %MON obc_N_vVel_max               =  -6.9685423951928E-04
(PID.TID 0000.0001) %MON obc_N_vVel_min               =  -6.9685423951929E-04
(PID.TID 0000.0001) %MON obc_N_vVel_mean              =  -6.9685423951928E-04
(PID.TID 0000.0001) %MON obc_N_vVel_sd                =   1.3416202938669E-10
(PID.TID 0000.0001) %MON obc_N_vVel_Int               =  -4.5992379808273E+04
(PID.TID 0000.0001) // =======================================================
(PID.TID 0000.0001) // End OBCS MONITOR field statistics
(PID.TID 0000.0001) // =======================================================
 cg2d: Sum(rhs),rhsMax =   4.69748649425314E+00  3.49528321737343E+02
(PID.TID 0000.0001)      cg2d_init_res =   2.24489284296898E-05
(PID.TID 0000.0001)      cg2d_iters(min,last) =      -1      93
(PID.TID 0000.0001)      cg2d_last_res =   9.98215701248876E-12
(PID.TID 0000.0001) // =======================================================
(PID.TID 0000.0001) // Begin MONITOR dynamic field statistics
(PID.TID 0000.0001) // =======================================================
(PID.TID 0000.0001) %MON time_tsnumber                =                    28
(PID.TID 0000.0001) %MON time_secondsf                =   2.8000000000000E+03
(PID.TID 0000.0001) %MON dynstat_eta_max              =   4.9835186548904E+00
(PID.TID 0000.0001) %MON dynstat_eta_min              =  -1.5054715426887E+01
(PID.TID 0000.0001) %MON dynstat_eta_mean             =  -3.0405640198521E+00
(PID.TID 0000.0001) %MON dynstat_eta_sd               =   5.1283952346860E+00
(PID.TID 0000.0001) %MON dynstat_eta_del2             =   1.8973408391914E-01
(PID.TID 0000.0001) %MON dynstat_uvel_max             =   1.5290140854285E-04
(PID.TID 0000.0001) %MON dynstat_uvel_min             =  -1.4486311769171E-04
(PID.TID 0000.0001) %MON dynstat_uvel_mean            =   1.5879373251505E-07
(PID.TID 0000.0001) %MON dynstat_uvel_sd              =   2.2726456803437E-05
(PID.TID 0000.0001) %MON dynstat_uvel_del2            =   1.8619555441289E-08
(PID.TID 0000.0001) %MON dynstat_vvel_max             =  -6.1641826251346E-05
(PID.TID 0000.0001) %MON dynstat_vvel_min             =  -1.2143171516528E-03
(PID.TID 0000.0001) %MON dynstat_vvel_mean            =  -7.4937440508631E-04
(PID.TID 0000.0001) %MON dynstat_vvel_sd              =   1.7169130492627E-04
(PID.TID 0000.0001) %MON dynstat_vvel_del2            =   2.0141136611826E-07
(PID.TID 0000.0001) %MON dynstat_wvel_max             =   1.6340465110629E-04
(PID.TID 0000.0001) %MON dynstat_wvel_min             =  -4.2921485961592E-04
(PID.TID 0000.0001) %MON dynstat_wvel_mean            =   9.1441947245636E-08
(PID.TID 0000.0001) %MON dynstat_wvel_sd              =   3.2818549845810E-05
(PID.TID 0000.0001) %MON dynstat_wvel_del2            =   1.3055367715309E-07
(PID.TID 0000.0001) %MON dynstat_theta_max            =   1.2000000000000E+00
(PID.TID 0000.0001) %MON dynstat_theta_min            =  -1.0000000000000E+00
(PID.TID 0000.0001) %MON dynstat_theta_mean           =   5.6549970241043E-01
(PID.TID 0000.0001) %MON dynstat_theta_sd             =   8.4906834278623E-01
(PID.TID 0000.0001) %MON dynstat_theta_del2           =   7.2491074172801E-07
(PID.TID 0000.0001) %MON dynstat_salt_max             =   3.4700000000000E+01
(PID.TID 0000.0001) %MON dynstat_salt_min             =   3.4000000000000E+01
(PID.TID 0000.0001) %MON dynstat_salt_mean            =   3.4498113061578E+01
(PID.TID 0000.0001) %MON dynstat_salt_sd              =   2.7015819134456E-01
(PID.TID 0000.0001) %MON dynstat_salt_del2            =   2.3097880330434E-07
(PID.TID 0000.0001) %MON advcfl_uvel_max              =   1.5290140854285E-05
(PID.TID 0000.0001) %MON advcfl_vvel_max              =   1.2143171516528E-04
(PID.TID 0000.0001) %MON advcfl_wvel_max              =   2.1460742980796E-03
(PID.TID 0000.0001) %MON advcfl_W_hf_max              =   2.1460742980796E-03
(PID.TID 0000.0001) %MON pe_b_mean                    =  -8.1197988441000E-01
(PID.TID 0000.0001) %MON ke_max                       =   7.2822064024981E-07
(PID.TID 0000.0001) %MON ke_mean                      =   2.9401379243872E-07
(PID.TID 0000.0001) %MON ke_vol                       =   4.6182744202484E+12
(PID.TID 0000.0001) // =======================================================
(PID.TID 0000.0001) // End MONITOR dynamic field statistics
(PID.TID 0000.0001) // =======================================================
(PID.TID 0000.0001) // =======================================================
(PID.TID 0000.0001) // Begin OBCS MONITOR field statistics
(PID.TID 0000.0001) // =======================================================
(PID.TID 0000.0001) %MON obc_N_vVel_max               =  -6.9981298271434E-04
(PID.TID 0000.0001) %MON obc_N_vVel_min               =  -6.9981298271436E-04
(PID.TID 0000.0001) %MON obc_N_vVel_mean              =  -6.9981298271434E-04
(PID.TID 0000.0001) %MON obc_N_vVel_sd                =   2.0216166724931E-10
(PID.TID 0000.0001) %MON obc_N_vVel_Int               =  -4.6187656859146E+04
(PID.TID 0000.0001) // =======================================================
(PID.TID 0000.0001) // End OBCS MONITOR field statistics
(PID.TID 0000.0001) // =======================================================
 cg2d: Sum(rhs),rhsMax =   4.69630948157299E+00  3.49528567193329E+02
(PID.TID 0000.0001)      cg2d_init_res =   2.09823678025205E-05
(PID.TID 0000.0001)      cg2d_iters(min,last) =      -1      88
(PID.TID 0000.0001)      cg2d_last_res =   8.74873486121276E-12
(PID.TID 0000.0001) // =======================================================
(PID.TID 0000.0001) // Begin MONITOR dynamic field statistics
(PID.TID 0000.0001) // =======================================================
(PID.TID 0000.0001) %MON time_tsnumber                =                    29
(PID.TID 0000.0001) %MON time_secondsf                =   2.9000000000000E+03
(PID.TID 0000.0001) %MON dynstat_eta_max              =   4.9843131897557E+00
(PID.TID 0000.0001) %MON dynstat_eta_min              =  -1.5053151362747E+01
(PID.TID 0000.0001) %MON dynstat_eta_mean             =  -3.0398043040568E+00
(PID.TID 0000.0001) %MON dynstat_eta_sd               =   5.1281403384090E+00
(PID.TID 0000.0001) %MON dynstat_eta_del2             =   1.8973408506007E-01
(PID.TID 0000.0001) %MON dynstat_uvel_max             =   1.3951087501773E-04
(PID.TID 0000.0001) %MON dynstat_uvel_min             =  -1.4688986532689E-04
(PID.TID 0000.0001) %MON dynstat_uvel_mean            =  -5.7029978208004E-07
(PID.TID 0000.0001) %MON dynstat_uvel_sd              =   2.1517793751263E-05
(PID.TID 0000.0001) %MON dynstat_uvel_del2            =   1.8918753105792E-08
(PID.TID 0000.0001) %MON dynstat_vvel_max             =  -5.1797040446999E-05
(PID.TID 0000.0001) %MON dynstat_vvel_min             =  -1.2101715129893E-03
(PID.TID 0000.0001) %MON dynstat_vvel_mean            =  -7.0810565377556E-04
(PID.TID 0000.0001) %MON dynstat_vvel_sd              =   1.6252204385582E-04
(PID.TID 0000.0001) %MON dynstat_vvel_del2            =   1.9043024529303E-07
(PID.TID 0000.0001) %MON dynstat_wvel_max             =   1.6620315421162E-04
(PID.TID 0000.0001) %MON dynstat_wvel_min             =  -3.7810288335727E-04
(PID.TID 0000.0001) %MON dynstat_wvel_mean            =   2.9641364928380E-07
(PID.TID 0000.0001) %MON dynstat_wvel_sd              =   2.9964136533728E-05
(PID.TID 0000.0001) %MON dynstat_wvel_del2            =   1.0948469179373E-07
(PID.TID 0000.0001) %MON dynstat_theta_max            =   1.2000000000000E+00
(PID.TID 0000.0001) %MON dynstat_theta_min            =  -1.0000000000000E+00
(PID.TID 0000.0001) %MON dynstat_theta_mean           =   5.6549922339804E-01
(PID.TID 0000.0001) %MON dynstat_theta_sd             =   8.4906842660910E-01
(PID.TID 0000.0001) %MON dynstat_theta_del2           =   7.5593574839070E-07
(PID.TID 0000.0001) %MON dynstat_salt_max             =   3.4700000000000E+01
(PID.TID 0000.0001) %MON dynstat_salt_min             =   3.4000000000000E+01
(PID.TID 0000.0001) %MON dynstat_salt_mean            =   3.4498112893357E+01
(PID.TID 0000.0001) %MON dynstat_salt_sd              =   2.7015821935356E-01
(PID.TID 0000.0001) %MON dynstat_salt_del2            =   2.4084383241571E-07
(PID.TID 0000.0001) %MON advcfl_uvel_max              =   1.4688986532689E-05
(PID.TID 0000.0001) %MON advcfl_vvel_max              =   1.2101715129893E-04
(PID.TID 0000.0001) %MON advcfl_wvel_max              =   1.8905144167863E-03
(PID.TID 0000.0001) %MON advcfl_W_hf_max              =   1.8905144167863E-03
(PID.TID 0000.0001) %MON pe_b_mean                    =  -8.1183137294147E-01
(PID.TID 0000.0001) %MON ke_max                       =   6.4509236249331E-07
(PID.TID 0000.0001) %MON ke_mean                      =   2.6246966999912E-07
(PID.TID 0000.0001) %MON ke_vol                       =   4.6182790497221E+12
(PID.TID 0000.0001) // =======================================================
(PID.TID 0000.0001) // End MONITOR dynamic field statistics
(PID.TID 0000.0001) // =======================================================
(PID.TID 0000.0001) // =======================================================
(PID.TID 0000.0001) // Begin OBCS MONITOR field statistics
(PID.TID 0000.0001) // =======================================================
(PID.TID 0000.0001) %MON obc_N_vVel_max               =  -6.8212185072972E-04
(PID.TID 0000.0001) %MON obc_N_vVel_min               =  -6.8212185072974E-04
(PID.TID 0000.0001) %MON obc_N_vVel_mean              =  -6.8212185072972E-04
(PID.TID 0000.0001) %MON obc_N_vVel_sd                =   9.3744156232607E-11
(PID.TID 0000.0001) %MON obc_N_vVel_Int               =  -4.5020042148162E+04
(PID.TID 0000.0001) // =======================================================
(PID.TID 0000.0001) // End OBCS MONITOR field statistics
(PID.TID 0000.0001) // =======================================================
 cg2d: Sum(rhs),rhsMax =   4.69519604646195E+00  3.49528815650447E+02
(PID.TID 0000.0001)      cg2d_init_res =   1.90628383838238E-05
(PID.TID 0000.0001)      cg2d_iters(min,last) =      -1      93
(PID.TID 0000.0001)      cg2d_last_res =   8.86388721997210E-12
(PID.TID 0000.0001) // =======================================================
(PID.TID 0000.0001) // Begin MONITOR dynamic field statistics
(PID.TID 0000.0001) // =======================================================
(PID.TID 0000.0001) %MON time_tsnumber                =                    30
(PID.TID 0000.0001) %MON time_secondsf                =   3.0000000000000E+03
(PID.TID 0000.0001) %MON dynstat_eta_max              =   4.9850827531243E+00
(PID.TID 0000.0001) %MON dynstat_eta_min              =  -1.5051779099980E+01
(PID.TID 0000.0001) %MON dynstat_eta_mean             =  -3.0390857654935E+00
(PID.TID 0000.0001) %MON dynstat_eta_sd               =   5.1279207251104E+00
(PID.TID 0000.0001) %MON dynstat_eta_del2             =   1.8973408581134E-01
(PID.TID 0000.0001) %MON dynstat_uvel_max             =   1.3462040857630E-04
(PID.TID 0000.0001) %MON dynstat_uvel_min             =  -1.4857588054317E-04
(PID.TID 0000.0001) %MON dynstat_uvel_mean            =  -1.4271225489657E-06
(PID.TID 0000.0001) %MON dynstat_uvel_sd              =   2.0348669926970E-05
(PID.TID 0000.0001) %MON dynstat_uvel_del2            =   1.9206010089792E-08
(PID.TID 0000.0001) %MON dynstat_vvel_max             =  -4.0938434280768E-05
(PID.TID 0000.0001) %MON dynstat_vvel_min             =  -1.1826580296101E-03
(PID.TID 0000.0001) %MON dynstat_vvel_mean            =  -6.4871191655263E-04
(PID.TID 0000.0001) %MON dynstat_vvel_sd              =   1.5086126098319E-04
(PID.TID 0000.0001) %MON dynstat_vvel_del2            =   1.8907407788976E-07
(PID.TID 0000.0001) %MON dynstat_wvel_max             =   1.6577700607585E-04
(PID.TID 0000.0001) %MON dynstat_wvel_min             =  -3.1851332876710E-04
(PID.TID 0000.0001) %MON dynstat_wvel_mean            =   4.7458312237408E-07
(PID.TID 0000.0001) %MON dynstat_wvel_sd              =   2.7385767921550E-05
(PID.TID 0000.0001) %MON dynstat_wvel_del2            =   9.5804768384040E-08
(PID.TID 0000.0001) %MON dynstat_theta_max            =   1.2000000000000E+00
(PID.TID 0000.0001) %MON dynstat_theta_min            =  -1.0000000000000E+00
(PID.TID 0000.0001) %MON dynstat_theta_mean           =   5.6549875011428E-01
(PID.TID 0000.0001) %MON dynstat_theta_sd             =   8.4906849928561E-01
(PID.TID 0000.0001) %MON dynstat_theta_del2           =   7.7173861386608E-07
(PID.TID 0000.0001) %MON dynstat_salt_max             =   3.4700000000000E+01
(PID.TID 0000.0001) %MON dynstat_salt_min             =   3.4000000000000E+01
(PID.TID 0000.0001) %MON dynstat_salt_mean            =   3.4498112726957E+01
(PID.TID 0000.0001) %MON dynstat_salt_sd              =   2.7015824381133E-01
(PID.TID 0000.0001) %MON dynstat_salt_del2            =   2.4587600027586E-07
(PID.TID 0000.0001) %MON advcfl_uvel_max              =   1.4857588054317E-05
(PID.TID 0000.0001) %MON advcfl_vvel_max              =   1.1826580296101E-04
(PID.TID 0000.0001) %MON advcfl_wvel_max              =   1.5925666438355E-03
(PID.TID 0000.0001) %MON advcfl_W_hf_max              =   1.5925666438355E-03
(PID.TID 0000.0001) %MON pe_b_mean                    =  -8.1169653843057E-01
(PID.TID 0000.0001) %MON ke_max                       =   5.4092060604705E-07
(PID.TID 0000.0001) %MON ke_mean                      =   2.2050324417276E-07
(PID.TID 0000.0001) %MON ke_vol                       =   4.6182835624339E+12
(PID.TID 0000.0001) // =======================================================
(PID.TID 0000.0001) // End MONITOR dynamic field statistics
(PID.TID 0000.0001) // =======================================================
(PID.TID 0000.0001) // =======================================================
(PID.TID 0000.0001) // Begin OBCS MONITOR field statistics
(PID.TID 0000.0001) // =======================================================
(PID.TID 0000.0001) %MON obc_N_vVel_max               =  -6.4506236023001E-04
(PID.TID 0000.0001) %MON obc_N_vVel_min               =  -6.4506236023002E-04
(PID.TID 0000.0001) %MON obc_N_vVel_mean              =  -6.4506236023002E-04
(PID.TID 0000.0001) %MON obc_N_vVel_sd                =  -1.9905274260476E-20
(PID.TID 0000.0001) %MON obc_N_vVel_Int               =  -4.2574115775181E+04
(PID.TID 0000.0001) // =======================================================
(PID.TID 0000.0001) // End OBCS MONITOR field statistics
(PID.TID 0000.0001) // =======================================================
 cg2d: Sum(rhs),rhsMax =   4.69417609217724E+00  3.49529057391853E+02
(PID.TID 0000.0001)      cg2d_init_res =   1.67802861132463E-05
(PID.TID 0000.0001)      cg2d_iters(min,last) =      -1      92
(PID.TID 0000.0001)      cg2d_last_res =   9.50132222432222E-12
(PID.TID 0000.0001) // =======================================================
(PID.TID 0000.0001) // Begin MONITOR dynamic field statistics
(PID.TID 0000.0001) // =======================================================
(PID.TID 0000.0001) %MON time_tsnumber                =                    31
(PID.TID 0000.0001) %MON time_secondsf                =   3.1000000000000E+03
(PID.TID 0000.0001) %MON dynstat_eta_max              =   4.9857953984294E+00
(PID.TID 0000.0001) %MON dynstat_eta_min              =  -1.5050614381127E+01
(PID.TID 0000.0001) %MON dynstat_eta_mean             =  -3.0384276754261E+00
(PID.TID 0000.0001) %MON dynstat_eta_sd               =   5.1277408616379E+00
(PID.TID 0000.0001) %MON dynstat_eta_del2             =   1.8973408616216E-01
(PID.TID 0000.0001) %MON dynstat_uvel_max             =   1.3019385868465E-04
(PID.TID 0000.0001) %MON dynstat_uvel_min             =  -1.4992512053671E-04
(PID.TID 0000.0001) %MON dynstat_uvel_mean            =  -2.3393284876975E-06
(PID.TID 0000.0001) %MON dynstat_uvel_sd              =   1.9333088911058E-05
(PID.TID 0000.0001) %MON dynstat_uvel_del2            =   1.9450676728933E-08
(PID.TID 0000.0001) %MON dynstat_vvel_max             =  -2.9409234080902E-05
(PID.TID 0000.0001) %MON dynstat_vvel_min             =  -1.1331727760875E-03
(PID.TID 0000.0001) %MON dynstat_vvel_mean            =  -5.7416465957068E-04
(PID.TID 0000.0001) %MON dynstat_vvel_sd              =   1.3718470515318E-04
(PID.TID 0000.0001) %MON dynstat_vvel_del2            =   1.9860850995170E-07
(PID.TID 0000.0001) %MON dynstat_wvel_max             =   1.6174470038587E-04
(PID.TID 0000.0001) %MON dynstat_wvel_min             =  -2.5368696788101E-04
(PID.TID 0000.0001) %MON dynstat_wvel_mean            =   6.1831155915735E-07
(PID.TID 0000.0001) %MON dynstat_wvel_sd              =   2.5523879053795E-05
(PID.TID 0000.0001) %MON dynstat_wvel_del2            =   9.5138061860963E-08
(PID.TID 0000.0001) %MON dynstat_theta_max            =   1.2000000000000E+00
(PID.TID 0000.0001) %MON dynstat_theta_min            =  -1.0000000000000E+00
(PID.TID 0000.0001) %MON dynstat_theta_mean           =   5.6549828907853E-01
(PID.TID 0000.0001) %MON dynstat_theta_sd             =   8.4906855857732E-01
(PID.TID 0000.0001) %MON dynstat_theta_del2           =   7.7198354445861E-07
(PID.TID 0000.0001) %MON dynstat_salt_max             =   3.4700000000000E+01
(PID.TID 0000.0001) %MON dynstat_salt_min             =   3.4000000000000E+01
(PID.TID 0000.0001) %MON dynstat_salt_mean            =   3.4498112564453E+01
(PID.TID 0000.0001) %MON dynstat_salt_sd              =   2.7015826400793E-01
(PID.TID 0000.0001) %MON dynstat_salt_del2            =   2.4596864012065E-07
(PID.TID 0000.0001) %MON advcfl_uvel_max              =   1.4992512053671E-05
(PID.TID 0000.0001) %MON advcfl_vvel_max              =   1.1331727760875E-04
(PID.TID 0000.0001) %MON advcfl_wvel_max              =   1.2684348394051E-03
(PID.TID 0000.0001) %MON advcfl_W_hf_max              =   1.2684348394051E-03
(PID.TID 0000.0001) %MON pe_b_mean                    =  -8.1157835842444E-01
(PID.TID 0000.0001) %MON ke_max                       =   4.5827948592250E-07
(PID.TID 0000.0001) %MON ke_mean                      =   1.7317614545417E-07
(PID.TID 0000.0001) %MON ke_vol                       =   4.6182878305530E+12
(PID.TID 0000.0001) // =======================================================
(PID.TID 0000.0001) // End MONITOR dynamic field statistics
(PID.TID 0000.0001) // =======================================================
(PID.TID 0000.0001) // =======================================================
(PID.TID 0000.0001) // Begin OBCS MONITOR field statistics
(PID.TID 0000.0001) // =======================================================
(PID.TID 0000.0001) %MON obc_N_vVel_max               =  -5.9065872212282E-04
(PID.TID 0000.0001) %MON obc_N_vVel_min               =  -5.9065872212284E-04
(PID.TID 0000.0001) %MON obc_N_vVel_mean              =  -5.9065872212284E-04
(PID.TID 0000.0001) %MON obc_N_vVel_sd                =  -3.6316537613528E-20
(PID.TID 0000.0001) %MON obc_N_vVel_Int               =  -3.8983475660108E+04
(PID.TID 0000.0001) // =======================================================
(PID.TID 0000.0001) // End OBCS MONITOR field statistics
(PID.TID 0000.0001) // =======================================================
 cg2d: Sum(rhs),rhsMax =   4.69327492196107E+00  3.49529282307847E+02
(PID.TID 0000.0001)      cg2d_init_res =   1.42550571655155E-05
(PID.TID 0000.0001)      cg2d_iters(min,last) =      -1      91
(PID.TID 0000.0001)      cg2d_last_res =   9.76197721514827E-12
(PID.TID 0000.0001) // =======================================================
(PID.TID 0000.0001) // Begin MONITOR dynamic field statistics
(PID.TID 0000.0001) // =======================================================
(PID.TID 0000.0001) %MON time_tsnumber                =                    32
(PID.TID 0000.0001) %MON time_secondsf                =   3.2000000000000E+03
(PID.TID 0000.0001) %MON dynstat_eta_max              =   4.9864234475988E+00
(PID.TID 0000.0001) %MON dynstat_eta_min              =  -1.5049667848946E+01
(PID.TID 0000.0001) %MON dynstat_eta_mean             =  -3.0378463243453E+00
(PID.TID 0000.0001) %MON dynstat_eta_sd               =   5.1276034937728E+00
(PID.TID 0000.0001) %MON dynstat_eta_del2             =   1.8973408610932E-01
(PID.TID 0000.0001) %MON dynstat_uvel_max             =   1.2564020973372E-04
(PID.TID 0000.0001) %MON dynstat_uvel_min             =  -1.5094186852628E-04
(PID.TID 0000.0001) %MON dynstat_uvel_mean            =  -3.2219469643008E-06
(PID.TID 0000.0001) %MON dynstat_uvel_sd              =   1.8524597426647E-05
(PID.TID 0000.0001) %MON dynstat_uvel_del2            =   1.9626957397046E-08
(PID.TID 0000.0001) %MON dynstat_vvel_max             =   4.3733818295839E-05
(PID.TID 0000.0001) %MON dynstat_vvel_min             =  -1.0640574490127E-03
(PID.TID 0000.0001) %MON dynstat_vvel_mean            =  -4.8774883641148E-04
(PID.TID 0000.0001) %MON dynstat_vvel_sd              =   1.2231986827282E-04
(PID.TID 0000.0001) %MON dynstat_vvel_del2            =   2.1748040048215E-07
(PID.TID 0000.0001) %MON dynstat_wvel_max             =   1.5386949898760E-04
(PID.TID 0000.0001) %MON dynstat_wvel_min             =  -2.8403705043816E-04
(PID.TID 0000.0001) %MON dynstat_wvel_mean            =   7.2393836619177E-07
(PID.TID 0000.0001) %MON dynstat_wvel_sd              =   2.4775073713969E-05
(PID.TID 0000.0001) %MON dynstat_wvel_del2            =   1.0822600878440E-07
(PID.TID 0000.0001) %MON dynstat_theta_max            =   1.2000000000000E+00
(PID.TID 0000.0001) %MON dynstat_theta_min            =  -1.0000000000000E+00
(PID.TID 0000.0001) %MON dynstat_theta_mean           =   5.6549784710349E-01
(PID.TID 0000.0001) %MON dynstat_theta_sd             =   8.4906860269918E-01
(PID.TID 0000.0001) %MON dynstat_theta_del2           =   7.5705395678134E-07
(PID.TID 0000.0001) %MON dynstat_salt_max             =   3.4700000000000E+01
(PID.TID 0000.0001) %MON dynstat_salt_min             =   3.4000000000000E+01
(PID.TID 0000.0001) %MON dynstat_salt_mean            =   3.4498112408013E+01
(PID.TID 0000.0001) %MON dynstat_salt_sd              =   2.7015827937634E-01
(PID.TID 0000.0001) %MON dynstat_salt_del2            =   2.4124481489545E-07
(PID.TID 0000.0001) %MON advcfl_uvel_max              =   1.5094186852628E-05
(PID.TID 0000.0001) %MON advcfl_vvel_max              =   1.0640574490127E-04
(PID.TID 0000.0001) %MON advcfl_wvel_max              =   1.4201852521908E-03
(PID.TID 0000.0001) %MON advcfl_W_hf_max              =   1.4201852521908E-03
(PID.TID 0000.0001) %MON pe_b_mean                    =  -8.1147908965276E-01
(PID.TID 0000.0001) %MON ke_max                       =   4.0213826277518E-07
(PID.TID 0000.0001) %MON ke_mean                      =   1.2562777067924E-07
(PID.TID 0000.0001) %MON ke_vol                       =   4.6182917396080E+12
(PID.TID 0000.0001) // =======================================================
(PID.TID 0000.0001) // End MONITOR dynamic field statistics
(PID.TID 0000.0001) // =======================================================
(PID.TID 0000.0001) // =======================================================
(PID.TID 0000.0001) // Begin OBCS MONITOR field statistics
(PID.TID 0000.0001) // =======================================================
(PID.TID 0000.0001) %MON obc_N_vVel_max               =  -5.2159364218442E-04
(PID.TID 0000.0001) %MON obc_N_vVel_min               =  -5.2159364218442E-04
(PID.TID 0000.0001) %MON obc_N_vVel_mean              =  -5.2159364218442E-04
(PID.TID 0000.0001) %MON obc_N_vVel_sd                =   8.3594388656464E-11
(PID.TID 0000.0001) %MON obc_N_vVel_Int               =  -3.4425180384172E+04
(PID.TID 0000.0001) // =======================================================
(PID.TID 0000.0001) // End OBCS MONITOR field statistics
(PID.TID 0000.0001) // =======================================================
 cg2d: Sum(rhs),rhsMax =   4.69251236560406E+00  3.49529480872137E+02
(PID.TID 0000.0001)      cg2d_init_res =   1.16523113832949E-05
(PID.TID 0000.0001)      cg2d_iters(min,last) =      -1      90
(PID.TID 0000.0001)      cg2d_last_res =   9.67670835635882E-12
(PID.TID 0000.0001) // =======================================================
(PID.TID 0000.0001) // Begin MONITOR dynamic field statistics
(PID.TID 0000.0001) // =======================================================
(PID.TID 0000.0001) %MON time_tsnumber                =                    33
(PID.TID 0000.0001) %MON time_secondsf                =   3.3000000000000E+03
(PID.TID 0000.0001) %MON dynstat_eta_max              =   4.9869460166330E+00
(PID.TID 0000.0001) %MON dynstat_eta_min              =  -1.5048945819147E+01
(PID.TID 0000.0001) %MON dynstat_eta_mean             =  -3.0373544650661E+00
(PID.TID 0000.0001) %MON dynstat_eta_sd               =   5.1275096777521E+00
(PID.TID 0000.0001) %MON dynstat_eta_del2             =   1.8973408565611E-01
(PID.TID 0000.0001) %MON dynstat_uvel_max             =   1.2374363753764E-04
(PID.TID 0000.0001) %MON dynstat_uvel_min             =  -1.5163352413446E-04
(PID.TID 0000.0001) %MON dynstat_uvel_mean            =  -3.9932416351410E-06
(PID.TID 0000.0001) %MON dynstat_uvel_sd              =   1.7930013001115E-05
(PID.TID 0000.0001) %MON dynstat_uvel_del2            =   1.9716679565007E-08
(PID.TID 0000.0001) %MON dynstat_vvel_max             =   1.3422016408635E-04
(PID.TID 0000.0001) %MON dynstat_vvel_min             =  -9.7812959461672E-04
(PID.TID 0000.0001) %MON dynstat_vvel_mean            =  -3.9292845642961E-04
(PID.TID 0000.0001) %MON dynstat_vvel_sd              =   1.0753030296689E-04
(PID.TID 0000.0001) %MON dynstat_vvel_del2            =   2.4241877832917E-07
(PID.TID 0000.0001) %MON dynstat_wvel_max             =   1.4201824388830E-04
(PID.TID 0000.0001) %MON dynstat_wvel_min             =  -3.1739276719709E-04
(PID.TID 0000.0001) %MON dynstat_wvel_mean            =   7.9144612857996E-07
(PID.TID 0000.0001) %MON dynstat_wvel_sd              =   2.5307531518517E-05
(PID.TID 0000.0001) %MON dynstat_wvel_del2            =   1.3010730345465E-07
(PID.TID 0000.0001) %MON dynstat_theta_max            =   1.2000000000000E+00
(PID.TID 0000.0001) %MON dynstat_theta_min            =  -1.0000000000000E+00
(PID.TID 0000.0001) %MON dynstat_theta_mean           =   5.6549743082716E-01
(PID.TID 0000.0001) %MON dynstat_theta_sd             =   8.4906863024795E-01
(PID.TID 0000.0001) %MON dynstat_theta_del2           =   7.2808880375407E-07
(PID.TID 0000.0001) %MON dynstat_salt_max             =   3.4700000000000E+01
(PID.TID 0000.0001) %MON dynstat_salt_min             =   3.4000000000000E+01
(PID.TID 0000.0001) %MON dynstat_salt_mean            =   3.4498112259749E+01
(PID.TID 0000.0001) %MON dynstat_salt_sd              =   2.7015828947061E-01
(PID.TID 0000.0001) %MON dynstat_salt_del2            =   2.3206891654710E-07
(PID.TID 0000.0001) %MON advcfl_uvel_max              =   1.5163352413446E-05
(PID.TID 0000.0001) %MON advcfl_vvel_max              =   9.7812959461672E-05
(PID.TID 0000.0001) %MON advcfl_wvel_max              =   1.5869638359854E-03
(PID.TID 0000.0001) %MON advcfl_W_hf_max              =   1.5869638359854E-03
(PID.TID 0000.0001) %MON pe_b_mean                    =  -8.1140025970323E-01
(PID.TID 0000.0001) %MON ke_max                       =   3.3903069379383E-07
(PID.TID 0000.0001) %MON ke_mean                      =   8.2445554706853E-08
(PID.TID 0000.0001) %MON ke_vol                       =   4.6182951928334E+12
(PID.TID 0000.0001) // =======================================================
(PID.TID 0000.0001) // End MONITOR dynamic field statistics
(PID.TID 0000.0001) // =======================================================
(PID.TID 0000.0001) // =======================================================
(PID.TID 0000.0001) // Begin OBCS MONITOR field statistics
(PID.TID 0000.0001) // =======================================================
(PID.TID 0000.0001) %MON obc_N_vVel_max               =  -4.4105102878482E-04
(PID.TID 0000.0001) %MON obc_N_vVel_min               =  -4.4105102878483E-04
(PID.TID 0000.0001) %MON obc_N_vVel_mean              =  -4.4105102878483E-04
(PID.TID 0000.0001) %MON obc_N_vVel_sd                =  -6.0880493083903E-21
(PID.TID 0000.0001) %MON obc_N_vVel_Int               =  -2.9109367899799E+04
(PID.TID 0000.0001) // =======================================================
(PID.TID 0000.0001) // End OBCS MONITOR field statistics
(PID.TID 0000.0001) // =======================================================
 cg2d: Sum(rhs),rhsMax =   4.69190225651778E+00  3.49529645044834E+02
(PID.TID 0000.0001)      cg2d_init_res =   9.20817379584021E-06
(PID.TID 0000.0001)      cg2d_iters(min,last) =      -1      88
(PID.TID 0000.0001)      cg2d_last_res =   9.25041061141431E-12
(PID.TID 0000.0001) // =======================================================
(PID.TID 0000.0001) // Begin MONITOR dynamic field statistics
(PID.TID 0000.0001) // =======================================================
(PID.TID 0000.0001) %MON time_tsnumber                =                    34
(PID.TID 0000.0001) %MON time_secondsf                =   3.4000000000000E+03
(PID.TID 0000.0001) %MON dynstat_eta_max              =   4.9873503363440E+00
(PID.TID 0000.0001) %MON dynstat_eta_min              =  -1.5048450452536E+01
(PID.TID 0000.0001) %MON dynstat_eta_mean             =  -3.0369609820476E+00
(PID.TID 0000.0001) %MON dynstat_eta_sd               =   5.1274589071631E+00
(PID.TID 0000.0001) %MON dynstat_eta_del2             =   1.8973408480943E-01
(PID.TID 0000.0001) %MON dynstat_uvel_max             =   1.2430094262239E-04
(PID.TID 0000.0001) %MON dynstat_uvel_min             =  -1.5201287252232E-04
(PID.TID 0000.0001) %MON dynstat_uvel_mean            =  -4.5868301629968E-06
(PID.TID 0000.0001) %MON dynstat_uvel_sd              =   1.7532847060948E-05
(PID.TID 0000.0001) %MON dynstat_uvel_del2            =   1.9711045746675E-08
(PID.TID 0000.0001) %MON dynstat_vvel_max             =   2.2274645370967E-04
(PID.TID 0000.0001) %MON dynstat_vvel_min             =  -8.7848593262649E-04
(PID.TID 0000.0001) %MON dynstat_vvel_mean            =  -2.9320603856934E-04
(PID.TID 0000.0001) %MON dynstat_vvel_sd              =   9.4505992828679E-05
(PID.TID 0000.0001) %MON dynstat_vvel_del2            =   2.6997677367727E-07
(PID.TID 0000.0001) %MON dynstat_wvel_max             =   1.2616957446968E-04
(PID.TID 0000.0001) %MON dynstat_wvel_min             =  -3.4462952757214E-04
(PID.TID 0000.0001) %MON dynstat_wvel_mean            =   8.2363832385041E-07
(PID.TID 0000.0001) %MON dynstat_wvel_sd              =   2.6956392345384E-05
(PID.TID 0000.0001) %MON dynstat_wvel_del2            =   1.5539154149936E-07
(PID.TID 0000.0001) %MON dynstat_theta_max            =   1.2000000000000E+00
(PID.TID 0000.0001) %MON dynstat_theta_min            =  -1.0000000000000E+00
(PID.TID 0000.0001) %MON dynstat_theta_mean           =   5.6549704616475E-01
(PID.TID 0000.0001) %MON dynstat_theta_sd             =   8.4906864008766E-01
(PID.TID 0000.0001) %MON dynstat_theta_del2           =   6.8698458163805E-07
(PID.TID 0000.0001) %MON dynstat_salt_max             =   3.4700000000000E+01
(PID.TID 0000.0001) %MON dynstat_salt_min             =   3.4000000000000E+01
(PID.TID 0000.0001) %MON dynstat_salt_mean            =   3.4498112121543E+01
(PID.TID 0000.0001) %MON dynstat_salt_sd              =   2.7015829393035E-01
(PID.TID 0000.0001) %MON dynstat_salt_del2            =   2.1904743792123E-07
(PID.TID 0000.0001) %MON advcfl_uvel_max              =   1.5201287252232E-05
(PID.TID 0000.0001) %MON advcfl_vvel_max              =   8.7848593262649E-05
(PID.TID 0000.0001) %MON advcfl_wvel_max              =   1.7231476378607E-03
(PID.TID 0000.0001) %MON advcfl_W_hf_max              =   1.7231476378607E-03
(PID.TID 0000.0001) %MON pe_b_mean                    =  -8.1134268080604E-01
(PID.TID 0000.0001) %MON ke_max                       =   2.7405145845107E-07
(PID.TID 0000.0001) %MON ke_mean                      =   4.7166165541610E-08
(PID.TID 0000.0001) %MON ke_vol                       =   4.6182981144775E+12
(PID.TID 0000.0001) // =======================================================
(PID.TID 0000.0001) // End MONITOR dynamic field statistics
(PID.TID 0000.0001) // =======================================================
(PID.TID 0000.0001) // =======================================================
(PID.TID 0000.0001) // Begin OBCS MONITOR field statistics
(PID.TID 0000.0001) // =======================================================
(PID.TID 0000.0001) %MON obc_N_vVel_max               =  -3.5251240190827E-04
(PID.TID 0000.0001) %MON obc_N_vVel_min               =  -3.5251240190827E-04
(PID.TID 0000.0001) %MON obc_N_vVel_mean              =  -3.5251240190827E-04
(PID.TID 0000.0001) %MON obc_N_vVel_sd                =  -6.0086399695852E-21
(PID.TID 0000.0001) %MON obc_N_vVel_Int               =  -2.3265818525946E+04
(PID.TID 0000.0001) // =======================================================
(PID.TID 0000.0001) // End OBCS MONITOR field statistics
(PID.TID 0000.0001) // =======================================================
 cg2d: Sum(rhs),rhsMax =   4.69145228642091E+00  3.49529768925679E+02
(PID.TID 0000.0001)      cg2d_init_res =   7.28442923129556E-06
(PID.TID 0000.0001)      cg2d_iters(min,last) =      -1      87
(PID.TID 0000.0001)      cg2d_last_res =   9.26967542689019E-12
(PID.TID 0000.0001) // =======================================================
(PID.TID 0000.0001) // Begin MONITOR dynamic field statistics
(PID.TID 0000.0001) // =======================================================
(PID.TID 0000.0001) %MON time_tsnumber                =                    35
(PID.TID 0000.0001) %MON time_secondsf                =   3.5000000000000E+03
(PID.TID 0000.0001) %MON dynstat_eta_max              =   4.9876318172324E+00
(PID.TID 0000.0001) %MON dynstat_eta_min              =  -1.5048179641346E+01
(PID.TID 0000.0001) %MON dynstat_eta_mean             =  -3.0366708029603E+00
(PID.TID 0000.0001) %MON dynstat_eta_sd               =   5.1274493068214E+00
(PID.TID 0000.0001) %MON dynstat_eta_del2             =   1.8973408358517E-01
(PID.TID 0000.0001) %MON dynstat_uvel_max             =   1.2496006079132E-04
(PID.TID 0000.0001) %MON dynstat_uvel_min             =  -1.5209935873537E-04
(PID.TID 0000.0001) %MON dynstat_uvel_mean            =  -4.9589845386919E-06
(PID.TID 0000.0001) %MON dynstat_uvel_sd              =   1.7311447352177E-05
(PID.TID 0000.0001) %MON dynstat_uvel_del2            =   1.9611235861667E-08
(PID.TID 0000.0001) %MON dynstat_vvel_max             =   3.0550605822888E-04
(PID.TID 0000.0001) %MON dynstat_vvel_min             =  -7.6831251203892E-04
(PID.TID 0000.0001) %MON dynstat_vvel_mean            =  -1.9198722575685E-04
(PID.TID 0000.0001) %MON dynstat_vvel_sd              =   8.5146270266301E-05
(PID.TID 0000.0001) %MON dynstat_vvel_del2            =   2.9729332631015E-07
(PID.TID 0000.0001) %MON dynstat_wvel_max             =   1.4280885031823E-04
(PID.TID 0000.0001) %MON dynstat_wvel_min             =  -3.6483777768120E-04
(PID.TID 0000.0001) %MON dynstat_wvel_mean            =   8.2509089608092E-07
(PID.TID 0000.0001) %MON dynstat_wvel_sd              =   2.9327744036428E-05
(PID.TID 0000.0001) %MON dynstat_wvel_del2            =   1.8049176154006E-07
(PID.TID 0000.0001) %MON dynstat_theta_max            =   1.2000000000000E+00
(PID.TID 0000.0001) %MON dynstat_theta_min            =  -1.0000000000000E+00
(PID.TID 0000.0001) %MON dynstat_theta_mean           =   5.6549669779840E-01
(PID.TID 0000.0001) %MON dynstat_theta_sd             =   8.4906863169849E-01
(PID.TID 0000.0001) %MON dynstat_theta_del2           =   6.3658094841179E-07
(PID.TID 0000.0001) %MON dynstat_salt_max             =   3.4700000000000E+01
(PID.TID 0000.0001) %MON dynstat_salt_min             =   3.4000000000000E+01
(PID.TID 0000.0001) %MON dynstat_salt_mean            =   3.4498111994886E+01
(PID.TID 0000.0001) %MON dynstat_salt_sd              =   2.7015829259164E-01
(PID.TID 0000.0001) %MON dynstat_salt_del2            =   2.0308815353085E-07
(PID.TID 0000.0001) %MON advcfl_uvel_max              =   1.5209935873537E-05
(PID.TID 0000.0001) %MON advcfl_vvel_max              =   7.6831251203892E-05
(PID.TID 0000.0001) %MON advcfl_wvel_max              =   1.8241888884060E-03
(PID.TID 0000.0001) %MON advcfl_W_hf_max              =   1.8241888884060E-03
(PID.TID 0000.0001) %MON pe_b_mean                    =  -8.1130648258375E-01
(PID.TID 0000.0001) %MON ke_max                       =   2.1163487241575E-07
(PID.TID 0000.0001) %MON ke_mean                      =   2.1972185177363E-08
(PID.TID 0000.0001) %MON ke_vol                       =   4.6183004517666E+12
(PID.TID 0000.0001) // =======================================================
(PID.TID 0000.0001) // End MONITOR dynamic field statistics
(PID.TID 0000.0001) // =======================================================
(PID.TID 0000.0001) // =======================================================
(PID.TID 0000.0001) // Begin OBCS MONITOR field statistics
(PID.TID 0000.0001) // =======================================================
(PID.TID 0000.0001) %MON obc_N_vVel_max               =  -2.5953887163845E-04
(PID.TID 0000.0001) %MON obc_N_vVel_min               =  -2.5953887163846E-04
(PID.TID 0000.0001) %MON obc_N_vVel_mean              =  -2.5953887163846E-04
(PID.TID 0000.0001) %MON obc_N_vVel_sd                =  -3.3087224502121E-21
(PID.TID 0000.0001) %MON obc_N_vVel_Int               =  -1.7129565528138E+04
(PID.TID 0000.0001) // =======================================================
(PID.TID 0000.0001) // End OBCS MONITOR field statistics
(PID.TID 0000.0001) // =======================================================
 cg2d: Sum(rhs),rhsMax =   4.69116421299246E+00  3.49529849108796E+02
(PID.TID 0000.0001)      cg2d_init_res =   6.36917550463699E-06
(PID.TID 0000.0001)      cg2d_iters(min,last) =      -1      87
(PID.TID 0000.0001)      cg2d_last_res =   8.47361208636056E-12
(PID.TID 0000.0001) // =======================================================
(PID.TID 0000.0001) // Begin MONITOR dynamic field statistics
(PID.TID 0000.0001) // =======================================================
(PID.TID 0000.0001) %MON time_tsnumber                =                    36
(PID.TID 0000.0001) %MON time_secondsf                =   3.6000000000000E+03
(PID.TID 0000.0001) %MON dynstat_eta_max              =   4.9877930684922E+00
(PID.TID 0000.0001) %MON dynstat_eta_min              =  -1.5048126827972E+01
(PID.TID 0000.0001) %MON dynstat_eta_mean             =  -3.0364850361330E+00
(PID.TID 0000.0001) %MON dynstat_eta_sd               =   5.1274778638192E+00
(PID.TID 0000.0001) %MON dynstat_eta_del2             =   1.8973408200602E-01
(PID.TID 0000.0001) %MON dynstat_uvel_max             =   1.2569888370528E-04
(PID.TID 0000.0001) %MON dynstat_uvel_min             =  -1.5191980489766E-04
(PID.TID 0000.0001) %MON dynstat_uvel_mean            =  -5.0911137915656E-06
(PID.TID 0000.0001) %MON dynstat_uvel_sd              =   1.7247907567955E-05
(PID.TID 0000.0001) %MON dynstat_uvel_del2            =   1.9427937976969E-08
(PID.TID 0000.0001) %MON dynstat_vvel_max             =   3.7927202018063E-04
(PID.TID 0000.0001) %MON dynstat_vvel_min             =  -6.5072805679868E-04
(PID.TID 0000.0001) %MON dynstat_vvel_mean            =  -9.2460962560088E-05
(PID.TID 0000.0001) %MON dynstat_vvel_sd              =   8.0910995965827E-05
(PID.TID 0000.0001) %MON dynstat_vvel_del2            =   3.2221793613117E-07
(PID.TID 0000.0001) %MON dynstat_wvel_max             =   2.0562748588706E-04
(PID.TID 0000.0001) %MON dynstat_wvel_min             =  -3.7729792213072E-04
(PID.TID 0000.0001) %MON dynstat_wvel_mean            =   8.0111506588932E-07
(PID.TID 0000.0001) %MON dynstat_wvel_sd              =   3.1987675698291E-05
(PID.TID 0000.0001) %MON dynstat_wvel_del2            =   2.0320511152187E-07
(PID.TID 0000.0001) %MON dynstat_theta_max            =   1.2000000000000E+00
(PID.TID 0000.0001) %MON dynstat_theta_min            =  -1.0000000000000E+00
(PID.TID 0000.0001) %MON dynstat_theta_mean           =   5.6549638879827E-01
(PID.TID 0000.0001) %MON dynstat_theta_sd             =   8.4906860507609E-01
(PID.TID 0000.0001) %MON dynstat_theta_del2           =   5.8076859471226E-07
(PID.TID 0000.0001) %MON dynstat_salt_max             =   3.4700000000000E+01
(PID.TID 0000.0001) %MON dynstat_salt_min             =   3.4000000000000E+01
(PID.TID 0000.0001) %MON dynstat_salt_mean            =   3.4498111880755E+01
(PID.TID 0000.0001) %MON dynstat_salt_sd              =   2.7015828545515E-01
(PID.TID 0000.0001) %MON dynstat_salt_del2            =   1.8543391449131E-07
(PID.TID 0000.0001) %MON advcfl_uvel_max              =   1.5191980489766E-05
(PID.TID 0000.0001) %MON advcfl_vvel_max              =   6.5072805679868E-05
(PID.TID 0000.0001) %MON advcfl_wvel_max              =   1.8864896106536E-03
(PID.TID 0000.0001) %MON advcfl_W_hf_max              =   1.8864896106536E-03
(PID.TID 0000.0001) %MON pe_b_mean                    =  -8.1129116094002E-01
(PID.TID 0000.0001) %MON ke_max                       =   1.5523670841323E-07
(PID.TID 0000.0001) %MON ke_mean                      =   7.6082843662661E-09
(PID.TID 0000.0001) %MON ke_vol                       =   4.6183021754304E+12
(PID.TID 0000.0001) // =======================================================
(PID.TID 0000.0001) // End MONITOR dynamic field statistics
(PID.TID 0000.0001) // =======================================================
(PID.TID 0000.0001) // =======================================================
(PID.TID 0000.0001) // Begin OBCS MONITOR field statistics
(PID.TID 0000.0001) // =======================================================
(PID.TID 0000.0001) %MON obc_N_vVel_max               =  -1.6556784509494E-04
(PID.TID 0000.0001) %MON obc_N_vVel_min               =  -1.6556784509494E-04
(PID.TID 0000.0001) %MON obc_N_vVel_mean              =  -1.6556784509494E-04
(PID.TID 0000.0001) %MON obc_N_vVel_sd                =   1.8990806909479E-11
(PID.TID 0000.0001) %MON obc_N_vVel_Int               =  -1.0927477776266E+04
(PID.TID 0000.0001) // =======================================================
(PID.TID 0000.0001) // End OBCS MONITOR field statistics
(PID.TID 0000.0001) // =======================================================
 cg2d: Sum(rhs),rhsMax =   3.01311180752099E+00  4.53056949166209E+02
(PID.TID 0000.0001)      cg2d_init_res =   3.05879153516408E-04
(PID.TID 0000.0001)      cg2d_iters(min,last) =      -1      95
(PID.TID 0000.0001)      cg2d_last_res =   9.61213999665460E-12
(PID.TID 0000.0001) // =======================================================
(PID.TID 0000.0001) // Begin MONITOR dynamic field statistics
(PID.TID 0000.0001) // =======================================================
(PID.TID 0000.0001) %MON time_tsnumber                =                    37
(PID.TID 0000.0001) %MON time_secondsf                =   3.7000000000000E+03
(PID.TID 0000.0001) %MON dynstat_eta_max              =   5.7826530996929E+00
(PID.TID 0000.0001) %MON dynstat_eta_min              =  -1.4198717017222E+01
(PID.TID 0000.0001) %MON dynstat_eta_mean             =  -2.5279837833558E+00
(PID.TID 0000.0001) %MON dynstat_eta_sd               =   4.9423108553999E+00
(PID.TID 0000.0001) %MON dynstat_eta_del2             =   1.9057746911498E-01
(PID.TID 0000.0001) %MON dynstat_uvel_max             =   1.2624079959522E-04
(PID.TID 0000.0001) %MON dynstat_uvel_min             =  -1.7136038093923E-04
(PID.TID 0000.0001) %MON dynstat_uvel_mean            =  -4.9956810438645E-06
(PID.TID 0000.0001) %MON dynstat_uvel_sd              =   1.7418016018238E-05
(PID.TID 0000.0001) %MON dynstat_uvel_del2            =   2.2497427667696E-08
(PID.TID 0000.0001) %MON dynstat_vvel_max             =   5.0307723804402E-04
(PID.TID 0000.0001) %MON dynstat_vvel_min             =  -5.2806189284277E-04
(PID.TID 0000.0001) %MON dynstat_vvel_mean            =   2.7232036669717E-06
(PID.TID 0000.0001) %MON dynstat_vvel_sd              =   8.1966838082479E-05
(PID.TID 0000.0001) %MON dynstat_vvel_del2            =   3.4350838206339E-07
(PID.TID 0000.0001) %MON dynstat_wvel_max             =   2.6333521456667E-04
(PID.TID 0000.0001) %MON dynstat_wvel_min             =  -3.8725011156041E-04
(PID.TID 0000.0001) %MON dynstat_wvel_mean            =   7.6329323301345E-07
(PID.TID 0000.0001) %MON dynstat_wvel_sd              =   3.4594998007257E-05
(PID.TID 0000.0001) %MON dynstat_wvel_del2            =   2.2233898324766E-07
(PID.TID 0000.0001) %MON dynstat_theta_max            =   1.2000000000000E+00
(PID.TID 0000.0001) %MON dynstat_theta_min            =  -1.0000000000000E+00
(PID.TID 0000.0001) %MON dynstat_theta_mean           =   5.6549612152042E-01
(PID.TID 0000.0001) %MON dynstat_theta_sd             =   8.4906771897468E-01
(PID.TID 0000.0001) %MON dynstat_theta_del2           =   3.8375426815254E-06
(PID.TID 0000.0001) %MON dynstat_salt_max             =   3.4700000000000E+01
(PID.TID 0000.0001) %MON dynstat_salt_min             =   3.4000000000000E+01
(PID.TID 0000.0001) %MON dynstat_salt_mean            =   3.4498111779891E+01
(PID.TID 0000.0001) %MON dynstat_salt_sd              =   2.7015800382486E-01
(PID.TID 0000.0001) %MON dynstat_salt_del2            =   1.2217388329158E-06
(PID.TID 0000.0001) %MON advcfl_uvel_max              =   1.7136038093923E-05
(PID.TID 0000.0001) %MON advcfl_vvel_max              =   5.2806189284277E-05
(PID.TID 0000.0001) %MON advcfl_wvel_max              =   1.9362505578021E-03
(PID.TID 0000.0001) %MON advcfl_W_hf_max              =   1.9362505578021E-03
(PID.TID 0000.0001) %MON pe_b_mean                    =  -6.8307527258389E-01
(PID.TID 0000.0001) %MON ke_max                       =   1.0693977448101E-07
(PID.TID 0000.0001) %MON ke_mean                      =   3.5045322559729E-09
(PID.TID 0000.0001) %MON ke_vol                       =   4.6183032788854E+12
(PID.TID 0000.0001) // =======================================================
(PID.TID 0000.0001) // End MONITOR dynamic field statistics
(PID.TID 0000.0001) // =======================================================
(PID.TID 0000.0001) // =======================================================
(PID.TID 0000.0001) // Begin OBCS MONITOR field statistics
(PID.TID 0000.0001) // =======================================================
(PID.TID 0000.0001) %MON obc_N_vVel_max               =  -7.3746970914673E-05
(PID.TID 0000.0001) %MON obc_N_vVel_min               =  -7.3746970914674E-05
(PID.TID 0000.0001) %MON obc_N_vVel_mean              =  -7.3746970914673E-05
(PID.TID 0000.0001) %MON obc_N_vVel_sd                =   1.3304760467079E-11
(PID.TID 0000.0001) %MON obc_N_vVel_Int               =  -4.8673000803685E+03
(PID.TID 0000.0001) // =======================================================
(PID.TID 0000.0001) // End OBCS MONITOR field statistics
(PID.TID 0000.0001) // =======================================================
 cg2d: Sum(rhs),rhsMax =   3.01312797483969E+00  4.53056983828834E+02
(PID.TID 0000.0001)      cg2d_init_res =   9.10992678906997E-06
(PID.TID 0000.0001)      cg2d_iters(min,last) =      -1      91
(PID.TID 0000.0001)      cg2d_last_res =   9.66473805673780E-12
(PID.TID 0000.0001) // =======================================================
(PID.TID 0000.0001) // Begin MONITOR dynamic field statistics
(PID.TID 0000.0001) // =======================================================
(PID.TID 0000.0001) %MON time_tsnumber                =                    38
(PID.TID 0000.0001) %MON time_secondsf                =   3.8000000000000E+03
(PID.TID 0000.0001) %MON dynstat_eta_max              =   5.7824484380311E+00
(PID.TID 0000.0001) %MON dynstat_eta_min              =  -1.4198867690086E+01
(PID.TID 0000.0001) %MON dynstat_eta_mean             =  -2.5279975410577E+00
(PID.TID 0000.0001) %MON dynstat_eta_sd               =   4.9423906077196E+00
(PID.TID 0000.0001) %MON dynstat_eta_del2             =   1.9057749336865E-01
(PID.TID 0000.0001) %MON dynstat_uvel_max             =   1.2729910712572E-04
(PID.TID 0000.0001) %MON dynstat_uvel_min             =  -2.1700893958609E-04
(PID.TID 0000.0001) %MON dynstat_uvel_mean            =  -4.6863367486164E-06
(PID.TID 0000.0001) %MON dynstat_uvel_sd              =   1.7816975453643E-05
(PID.TID 0000.0001) %MON dynstat_uvel_del2            =   2.9461447501454E-08
(PID.TID 0000.0001) %MON dynstat_vvel_max             =   6.1371777000077E-04
(PID.TID 0000.0001) %MON dynstat_vvel_min             =  -4.1334384258013E-04
(PID.TID 0000.0001) %MON dynstat_vvel_mean            =   9.0957671691905E-05
(PID.TID 0000.0001) %MON dynstat_vvel_sd              =   8.6851198410195E-05
(PID.TID 0000.0001) %MON dynstat_vvel_del2            =   3.6004745049242E-07
(PID.TID 0000.0001) %MON dynstat_wvel_max             =   3.1358925515898E-04
(PID.TID 0000.0001) %MON dynstat_wvel_min             =  -3.9206670738263E-04
(PID.TID 0000.0001) %MON dynstat_wvel_mean            =   6.9710796296150E-07
(PID.TID 0000.0001) %MON dynstat_wvel_sd              =   3.6849902905548E-05
(PID.TID 0000.0001) %MON dynstat_wvel_del2            =   2.3665294874876E-07
(PID.TID 0000.0001) %MON dynstat_theta_max            =   1.2000000000000E+00
(PID.TID 0000.0001) %MON dynstat_theta_min            =  -1.0000000000000E+00
(PID.TID 0000.0001) %MON dynstat_theta_mean           =   5.6549589196912E-01
(PID.TID 0000.0001) %MON dynstat_theta_sd             =   8.4906765767734E-01
(PID.TID 0000.0001) %MON dynstat_theta_del2           =   3.8113061364292E-06
(PID.TID 0000.0001) %MON dynstat_salt_max             =   3.4700000000000E+01
(PID.TID 0000.0001) %MON dynstat_salt_min             =   3.4000000000000E+01
(PID.TID 0000.0001) %MON dynstat_salt_mean            =   3.4498111691031E+01
(PID.TID 0000.0001) %MON dynstat_salt_sd              =   2.7015798572624E-01
(PID.TID 0000.0001) %MON dynstat_salt_del2            =   1.2133858209306E-06
(PID.TID 0000.0001) %MON advcfl_uvel_max              =   2.1700893958609E-05
(PID.TID 0000.0001) %MON advcfl_vvel_max              =   6.1371777000077E-05
(PID.TID 0000.0001) %MON advcfl_wvel_max              =   1.9603335369132E-03
(PID.TID 0000.0001) %MON advcfl_W_hf_max              =   1.9603335369132E-03
(PID.TID 0000.0001) %MON pe_b_mean                    =  -6.8309815578535E-01
(PID.TID 0000.0001) %MON ke_max                       =   1.1845348232725E-07
(PID.TID 0000.0001) %MON ke_mean                      =   8.0737629689141E-09
(PID.TID 0000.0001) %MON ke_vol                       =   4.6183037763269E+12
(PID.TID 0000.0001) // =======================================================
(PID.TID 0000.0001) // End MONITOR dynamic field statistics
(PID.TID 0000.0001) // =======================================================
(PID.TID 0000.0001) // =======================================================
(PID.TID 0000.0001) // Begin OBCS MONITOR field statistics
(PID.TID 0000.0001) // =======================================================
(PID.TID 0000.0001) %MON obc_N_vVel_max               =   1.4004877586652E-05
(PID.TID 0000.0001) %MON obc_N_vVel_min               =   1.4004877586651E-05
(PID.TID 0000.0001) %MON obc_N_vVel_mean              =   1.4004877586652E-05
(PID.TID 0000.0001) %MON obc_N_vVel_sd                =  -1.4760004055243E-23
(PID.TID 0000.0001) %MON obc_N_vVel_Int               =   9.2432192071901E+02
(PID.TID 0000.0001) // =======================================================
(PID.TID 0000.0001) // End OBCS MONITOR field statistics
(PID.TID 0000.0001) // =======================================================
 cg2d: Sum(rhs),rhsMax =   3.01325029250497E+00  4.53056942140884E+02
(PID.TID 0000.0001)      cg2d_init_res =   7.26455179180903E-06
(PID.TID 0000.0001)      cg2d_iters(min,last) =      -1      87
(PID.TID 0000.0001)      cg2d_last_res =   9.03510142187999E-12
(PID.TID 0000.0001) // =======================================================
(PID.TID 0000.0001) // Begin MONITOR dynamic field statistics
(PID.TID 0000.0001) // =======================================================
(PID.TID 0000.0001) %MON time_tsnumber                =                    39
(PID.TID 0000.0001) %MON time_secondsf                =   3.9000000000000E+03
(PID.TID 0000.0001) %MON dynstat_eta_max              =   5.7821132761802E+00
(PID.TID 0000.0001) %MON dynstat_eta_min              =  -1.4199149340280E+01
(PID.TID 0000.0001) %MON dynstat_eta_mean             =  -2.5280999322730E+00
(PID.TID 0000.0001) %MON dynstat_eta_sd               =   4.9424915316967E+00
(PID.TID 0000.0001) %MON dynstat_eta_del2             =   1.9057749440256E-01
(PID.TID 0000.0001) %MON dynstat_uvel_max             =   1.4990223597167E-04
(PID.TID 0000.0001) %MON dynstat_uvel_min             =  -2.6364518552668E-04
(PID.TID 0000.0001) %MON dynstat_uvel_mean            =  -4.2002852363855E-06
(PID.TID 0000.0001) %MON dynstat_uvel_sd              =   1.8428490739824E-05
(PID.TID 0000.0001) %MON dynstat_uvel_del2            =   3.8302139125793E-08
(PID.TID 0000.0001) %MON dynstat_vvel_max             =   7.4259632215501E-04
(PID.TID 0000.0001) %MON dynstat_vvel_min             =  -3.6651109493310E-04
(PID.TID 0000.0001) %MON dynstat_vvel_mean            =   1.7001013204783E-04
(PID.TID 0000.0001) %MON dynstat_vvel_sd              =   9.3653914492760E-05
(PID.TID 0000.0001) %MON dynstat_vvel_del2            =   3.7139143954295E-07
(PID.TID 0000.0001) %MON dynstat_wvel_max             =   3.5444410604740E-04
(PID.TID 0000.0001) %MON dynstat_wvel_min             =  -3.8805515192485E-04
(PID.TID 0000.0001) %MON dynstat_wvel_mean            =   6.2731571641422E-07
(PID.TID 0000.0001) %MON dynstat_wvel_sd              =   3.8597194842746E-05
(PID.TID 0000.0001) %MON dynstat_wvel_del2            =   2.4586331995704E-07
(PID.TID 0000.0001) %MON dynstat_theta_max            =   1.2000000000000E+00
(PID.TID 0000.0001) %MON dynstat_theta_min            =  -1.0000000000000E+00
(PID.TID 0000.0001) %MON dynstat_theta_mean           =   5.6549570265043E-01
(PID.TID 0000.0001) %MON dynstat_theta_sd             =   8.4906758013501E-01
(PID.TID 0000.0001) %MON dynstat_theta_del2           =   3.7871192954246E-06
(PID.TID 0000.0001) %MON dynstat_salt_max             =   3.4700000000000E+01
(PID.TID 0000.0001) %MON dynstat_salt_min             =   3.4000000000000E+01
(PID.TID 0000.0001) %MON dynstat_salt_mean            =   3.4498111614974E+01
(PID.TID 0000.0001) %MON dynstat_salt_sd              =   2.7015796252452E-01
(PID.TID 0000.0001) %MON dynstat_salt_del2            =   1.2056738832497E-06
(PID.TID 0000.0001) %MON advcfl_uvel_max              =   2.6364518552668E-05
(PID.TID 0000.0001) %MON advcfl_vvel_max              =   7.4259632215501E-05
(PID.TID 0000.0001) %MON advcfl_wvel_max              =   1.9402757596242E-03
(PID.TID 0000.0001) %MON advcfl_W_hf_max              =   1.9402757596242E-03
(PID.TID 0000.0001) %MON pe_b_mean                    =  -6.8313729999229E-01
(PID.TID 0000.0001) %MON ke_max                       =   1.8660272753974E-07
(PID.TID 0000.0001) %MON ke_mean                      =   1.8980472247336E-08
(PID.TID 0000.0001) %MON ke_vol                       =   4.6183036946061E+12
(PID.TID 0000.0001) // =======================================================
(PID.TID 0000.0001) // End MONITOR dynamic field statistics
(PID.TID 0000.0001) // =======================================================
(PID.TID 0000.0001) // =======================================================
(PID.TID 0000.0001) // Begin OBCS MONITOR field statistics
(PID.TID 0000.0001) // =======================================================
(PID.TID 0000.0001) %MON obc_N_vVel_max               =   9.3775032806782E-05
(PID.TID 0000.0001) %MON obc_N_vVel_min               =   9.3775032806781E-05
(PID.TID 0000.0001) %MON obc_N_vVel_mean              =   9.3775032806781E-05
(PID.TID 0000.0001) %MON obc_N_vVel_sd                =   1.3242442745251E-11
(PID.TID 0000.0001) %MON obc_N_vVel_Int               =   6.1891521652475E+03
(PID.TID 0000.0001) // =======================================================
(PID.TID 0000.0001) // End OBCS MONITOR field statistics
(PID.TID 0000.0001) // =======================================================
 cg2d: Sum(rhs),rhsMax =   3.01346682638570E+00  4.53056855577205E+02
(PID.TID 0000.0001)      cg2d_init_res =   8.26599323055006E-06
(PID.TID 0000.0001)      cg2d_iters(min,last) =      -1      88
(PID.TID 0000.0001)      cg2d_last_res =   8.87760427612444E-12
(PID.TID 0000.0001) // =======================================================
(PID.TID 0000.0001) // Begin MONITOR dynamic field statistics
(PID.TID 0000.0001) // =======================================================
(PID.TID 0000.0001) %MON time_tsnumber                =                    40
(PID.TID 0000.0001) %MON time_secondsf                =   4.0000000000000E+03
(PID.TID 0000.0001) %MON dynstat_eta_max              =   5.7816667211205E+00
(PID.TID 0000.0001) %MON dynstat_eta_min              =  -1.4199543091609E+01
(PID.TID 0000.0001) %MON dynstat_eta_mean             =  -2.5282811199047E+00
(PID.TID 0000.0001) %MON dynstat_eta_sd               =   4.9426089411505E+00
(PID.TID 0000.0001) %MON dynstat_eta_del2             =   1.9057749040134E-01
(PID.TID 0000.0001) %MON dynstat_uvel_max             =   1.9322371048958E-04
(PID.TID 0000.0001) %MON dynstat_uvel_min             =  -3.0942507074272E-04
(PID.TID 0000.0001) %MON dynstat_uvel_mean            =  -3.5836849455174E-06
(PID.TID 0000.0001) %MON dynstat_uvel_sd              =   1.9205046903975E-05
(PID.TID 0000.0001) %MON dynstat_uvel_del2            =   4.7817301189006E-08
(PID.TID 0000.0001) %MON dynstat_vvel_max             =   8.8123705153897E-04
(PID.TID 0000.0001) %MON dynstat_vvel_min             =  -3.1856386673365E-04
(PID.TID 0000.0001) %MON dynstat_vvel_mean            =   2.3825909452230E-04
(PID.TID 0000.0001) %MON dynstat_vvel_sd              =   1.0063948132623E-04
(PID.TID 0000.0001) %MON dynstat_vvel_del2            =   3.7733943252277E-07
(PID.TID 0000.0001) %MON dynstat_wvel_max             =   3.8517124206504E-04
(PID.TID 0000.0001) %MON dynstat_wvel_min             =  -3.7524311756333E-04
(PID.TID 0000.0001) %MON dynstat_wvel_mean            =   5.4753587963518E-07
(PID.TID 0000.0001) %MON dynstat_wvel_sd              =   3.9734205615821E-05
(PID.TID 0000.0001) %MON dynstat_wvel_del2            =   2.4977730982292E-07
(PID.TID 0000.0001) %MON dynstat_theta_max            =   1.2000000000000E+00
(PID.TID 0000.0001) %MON dynstat_theta_min            =  -1.0000000000000E+00
(PID.TID 0000.0001) %MON dynstat_theta_mean           =   5.6549554761280E-01
(PID.TID 0000.0001) %MON dynstat_theta_sd             =   8.4906748994472E-01
(PID.TID 0000.0001) %MON dynstat_theta_del2           =   3.7653650033365E-06
(PID.TID 0000.0001) %MON dynstat_salt_max             =   3.4700000000000E+01
(PID.TID 0000.0001) %MON dynstat_salt_min             =   3.4000000000000E+01
(PID.TID 0000.0001) %MON dynstat_salt_mean            =   3.4498111549824E+01
(PID.TID 0000.0001) %MON dynstat_salt_sd              =   2.7015793536333E-01
(PID.TID 0000.0001) %MON dynstat_salt_del2            =   1.1987261621321E-06
(PID.TID 0000.0001) %MON advcfl_uvel_max              =   3.0942507074272E-05
(PID.TID 0000.0001) %MON advcfl_vvel_max              =   8.8123705153897E-05
(PID.TID 0000.0001) %MON advcfl_wvel_max              =   1.9258562103252E-03
(PID.TID 0000.0001) %MON advcfl_W_hf_max              =   1.9258562103252E-03
(PID.TID 0000.0001) %MON pe_b_mean                    =  -6.8319038804880E-01
(PID.TID 0000.0001) %MON ke_max                       =   2.6729879078571E-07
(PID.TID 0000.0001) %MON ke_mean                      =   3.3537081053254E-08
(PID.TID 0000.0001) %MON ke_vol                       =   4.6183030864023E+12
(PID.TID 0000.0001) // =======================================================
(PID.TID 0000.0001) // End MONITOR dynamic field statistics
(PID.TID 0000.0001) // =======================================================
(PID.TID 0000.0001) // =======================================================
(PID.TID 0000.0001) // Begin OBCS MONITOR field statistics
(PID.TID 0000.0001) // =======================================================
(PID.TID 0000.0001) %MON obc_N_vVel_max               =   1.6469180085541E-04
(PID.TID 0000.0001) %MON obc_N_vVel_min               =   1.6469180085541E-04
(PID.TID 0000.0001) %MON obc_N_vVel_mean              =   1.6469180085541E-04
(PID.TID 0000.0001) %MON obc_N_vVel_sd                =  -2.5741860662650E-21
(PID.TID 0000.0001) %MON obc_N_vVel_Int               =   1.0869658856457E+04
(PID.TID 0000.0001) // =======================================================
(PID.TID 0000.0001) // End OBCS MONITOR field statistics
(PID.TID 0000.0001) // =======================================================
 cg2d: Sum(rhs),rhsMax =   3.01376401365121E+00  4.53056728768536E+02
(PID.TID 0000.0001)      cg2d_init_res =   9.14684319809269E-06
(PID.TID 0000.0001)      cg2d_iters(min,last) =      -1      88
(PID.TID 0000.0001)      cg2d_last_res =   9.89502897751087E-12
(PID.TID 0000.0001) // =======================================================
(PID.TID 0000.0001) // Begin MONITOR dynamic field statistics
(PID.TID 0000.0001) // =======================================================
(PID.TID 0000.0001) %MON time_tsnumber                =                    41
(PID.TID 0000.0001) %MON time_secondsf                =   4.1000000000000E+03
(PID.TID 0000.0001) %MON dynstat_eta_max              =   5.7811339409217E+00
(PID.TID 0000.0001) %MON dynstat_eta_min              =  -1.4200029540481E+01
(PID.TID 0000.0001) %MON dynstat_eta_mean             =  -2.5285297505651E+00
(PID.TID 0000.0001) %MON dynstat_eta_sd               =   4.9427383379125E+00
(PID.TID 0000.0001) %MON dynstat_eta_del2             =   1.9057748632643E-01
(PID.TID 0000.0001) %MON dynstat_uvel_max             =   2.3829523069807E-04
(PID.TID 0000.0001) %MON dynstat_uvel_min             =  -3.5421203464736E-04
(PID.TID 0000.0001) %MON dynstat_uvel_mean            =  -2.8829891129640E-06
(PID.TID 0000.0001) %MON dynstat_uvel_sd              =   2.0106040907060E-05
(PID.TID 0000.0001) %MON dynstat_uvel_del2            =   5.7568198996794E-08
(PID.TID 0000.0001) %MON dynstat_vvel_max             =   1.0001062584859E-03
(PID.TID 0000.0001) %MON dynstat_vvel_min             =  -2.7020883426060E-04
(PID.TID 0000.0001) %MON dynstat_vvel_mean            =   2.9453245574515E-04
(PID.TID 0000.0001) %MON dynstat_vvel_sd              =   1.0666077602917E-04
(PID.TID 0000.0001) %MON dynstat_vvel_del2            =   3.7808293083293E-07
(PID.TID 0000.0001) %MON dynstat_wvel_max             =   4.0573700498470E-04
(PID.TID 0000.0001) %MON dynstat_wvel_min             =  -3.5388701893762E-04
(PID.TID 0000.0001) %MON dynstat_wvel_mean            =   4.6011484421668E-07
(PID.TID 0000.0001) %MON dynstat_wvel_sd              =   4.0217932512842E-05
(PID.TID 0000.0001) %MON dynstat_wvel_del2            =   2.4848556700343E-07
(PID.TID 0000.0001) %MON dynstat_theta_max            =   1.2000000000000E+00
(PID.TID 0000.0001) %MON dynstat_theta_min            =  -1.0000000000000E+00
(PID.TID 0000.0001) %MON dynstat_theta_mean           =   5.6549542246792E-01
(PID.TID 0000.0001) %MON dynstat_theta_sd             =   8.4906738940781E-01
(PID.TID 0000.0001) %MON dynstat_theta_del2           =   3.7461412981150E-06
(PID.TID 0000.0001) %MON dynstat_salt_max             =   3.4700000000000E+01
(PID.TID 0000.0001) %MON dynstat_salt_min             =   3.4000000000000E+01
(PID.TID 0000.0001) %MON dynstat_salt_mean            =   3.4498111494187E+01
(PID.TID 0000.0001) %MON dynstat_salt_sd              =   2.7015790496715E-01
(PID.TID 0000.0001) %MON dynstat_salt_del2            =   1.1925738945237E-06
(PID.TID 0000.0001) %MON advcfl_uvel_max              =   3.5421203464736E-05
(PID.TID 0000.0001) %MON advcfl_vvel_max              =   1.0001062584859E-04
(PID.TID 0000.0001) %MON advcfl_wvel_max              =   2.0286850249235E-03
(PID.TID 0000.0001) %MON advcfl_W_hf_max              =   2.0286850249235E-03
(PID.TID 0000.0001) %MON pe_b_mean                    =  -6.8325485818533E-01
(PID.TID 0000.0001) %MON ke_max                       =   3.5332680601184E-07
(PID.TID 0000.0001) %MON ke_mean                      =   4.9082213865751E-08
(PID.TID 0000.0001) %MON ke_vol                       =   4.6183020101478E+12
(PID.TID 0000.0001) // =======================================================
(PID.TID 0000.0001) // End MONITOR dynamic field statistics
(PID.TID 0000.0001) // =======================================================
(PID.TID 0000.0001) // =======================================================
(PID.TID 0000.0001) // Begin OBCS MONITOR field statistics
(PID.TID 0000.0001) // =======================================================
(PID.TID 0000.0001) %MON obc_N_vVel_max               =   2.2539052014941E-04
(PID.TID 0000.0001) %MON obc_N_vVel_min               =   2.2539052014940E-04
(PID.TID 0000.0001) %MON obc_N_vVel_mean              =   2.2539052014940E-04
(PID.TID 0000.0001) %MON obc_N_vVel_sd                =   4.2968210658792E-11
(PID.TID 0000.0001) %MON obc_N_vVel_Int               =   1.4875774329861E+04
(PID.TID 0000.0001) // =======================================================
(PID.TID 0000.0001) // End OBCS MONITOR field statistics
(PID.TID 0000.0001) // =======================================================
 cg2d: Sum(rhs),rhsMax =   3.01412706253165E+00  4.53056567708356E+02
(PID.TID 0000.0001)      cg2d_init_res =   9.78936806776303E-06
(PID.TID 0000.0001)      cg2d_iters(min,last) =      -1      89
(PID.TID 0000.0001)      cg2d_last_res =   9.24790362725944E-12
(PID.TID 0000.0001) // =======================================================
(PID.TID 0000.0001) // Begin MONITOR dynamic field statistics
(PID.TID 0000.0001) // =======================================================
(PID.TID 0000.0001) %MON time_tsnumber                =                    42
(PID.TID 0000.0001) %MON time_secondsf                =   4.2000000000000E+03
(PID.TID 0000.0001) %MON dynstat_eta_max              =   5.7805374845603E+00
(PID.TID 0000.0001) %MON dynstat_eta_min              =  -1.4200587741652E+01
(PID.TID 0000.0001) %MON dynstat_eta_mean             =  -2.5288334473842E+00
(PID.TID 0000.0001) %MON dynstat_eta_sd               =   4.9428751482439E+00
(PID.TID 0000.0001) %MON dynstat_eta_del2             =   1.9057748211913E-01
(PID.TID 0000.0001) %MON dynstat_uvel_max             =   2.8219285673003E-04
(PID.TID 0000.0001) %MON dynstat_uvel_min             =  -3.9794877803345E-04
(PID.TID 0000.0001) %MON dynstat_uvel_mean            =  -2.1420829002383E-06
(PID.TID 0000.0001) %MON dynstat_uvel_sd              =   2.1092209121526E-05
(PID.TID 0000.0001) %MON dynstat_uvel_del2            =   6.7355259333029E-08
(PID.TID 0000.0001) %MON dynstat_vvel_max             =   1.0982958382417E-03
(PID.TID 0000.0001) %MON dynstat_vvel_min             =  -2.2209856025835E-04
(PID.TID 0000.0001) %MON dynstat_vvel_mean            =   3.3809906926786E-04
(PID.TID 0000.0001) %MON dynstat_vvel_sd              =   1.1105902423842E-04
(PID.TID 0000.0001) %MON dynstat_vvel_del2            =   3.7415906695833E-07
(PID.TID 0000.0001) %MON dynstat_wvel_max             =   4.1567913562121E-04
(PID.TID 0000.0001) %MON dynstat_wvel_min             =  -3.2447156590737E-04
(PID.TID 0000.0001) %MON dynstat_wvel_mean            =   3.6710892385942E-07
(PID.TID 0000.0001) %MON dynstat_wvel_sd              =   4.0056058180292E-05
(PID.TID 0000.0001) %MON dynstat_wvel_del2            =   2.4234355785203E-07
(PID.TID 0000.0001) %MON dynstat_theta_max            =   1.2000000000000E+00
(PID.TID 0000.0001) %MON dynstat_theta_min            =  -1.0000000000000E+00
(PID.TID 0000.0001) %MON dynstat_theta_mean           =   5.6549532220580E-01
(PID.TID 0000.0001) %MON dynstat_theta_sd             =   8.4906728083107E-01
(PID.TID 0000.0001) %MON dynstat_theta_del2           =   3.7292542117812E-06
(PID.TID 0000.0001) %MON dynstat_salt_max             =   3.4700000000000E+01
(PID.TID 0000.0001) %MON dynstat_salt_min             =   3.4000000000000E+01
(PID.TID 0000.0001) %MON dynstat_salt_mean            =   3.4498111446467E+01
(PID.TID 0000.0001) %MON dynstat_salt_sd              =   2.7015787206173E-01
(PID.TID 0000.0001) %MON dynstat_salt_del2            =   1.1871559612333E-06
(PID.TID 0000.0001) %MON advcfl_uvel_max              =   3.9794877803345E-05
(PID.TID 0000.0001) %MON advcfl_vvel_max              =   1.0982958382417E-04
(PID.TID 0000.0001) %MON advcfl_wvel_max              =   2.0783956781060E-03
(PID.TID 0000.0001) %MON advcfl_W_hf_max              =   2.0783956781060E-03
(PID.TID 0000.0001) %MON pe_b_mean                    =  -6.8332799573331E-01
(PID.TID 0000.0001) %MON ke_max                       =   4.3369395647626E-07
(PID.TID 0000.0001) %MON ke_mean                      =   6.3270851388390E-08
(PID.TID 0000.0001) %MON ke_vol                       =   4.6183005332816E+12
(PID.TID 0000.0001) // =======================================================
(PID.TID 0000.0001) // End MONITOR dynamic field statistics
(PID.TID 0000.0001) // =======================================================
(PID.TID 0000.0001) // =======================================================
(PID.TID 0000.0001) // Begin OBCS MONITOR field statistics
(PID.TID 0000.0001) // =======================================================
(PID.TID 0000.0001) %MON obc_N_vVel_max               =   2.7495005653006E-04
(PID.TID 0000.0001) %MON obc_N_vVel_min               =   2.7495005653005E-04
(PID.TID 0000.0001) %MON obc_N_vVel_mean              =   2.7495005653005E-04
(PID.TID 0000.0001) %MON obc_N_vVel_sd                =   2.2719170368504E-11
(PID.TID 0000.0001) %MON obc_N_vVel_Int               =   1.8146703730984E+04
(PID.TID 0000.0001) // =======================================================
(PID.TID 0000.0001) // End OBCS MONITOR field statistics
(PID.TID 0000.0001) // =======================================================
 cg2d: Sum(rhs),rhsMax =   3.01454050047651E+00  4.53056378960311E+02
(PID.TID 0000.0001)      cg2d_init_res =   1.01652595454036E-05
(PID.TID 0000.0001)      cg2d_iters(min,last) =      -1      89
(PID.TID 0000.0001)      cg2d_last_res =   9.55055212164964E-12
(PID.TID 0000.0001) // =======================================================
(PID.TID 0000.0001) // Begin MONITOR dynamic field statistics
(PID.TID 0000.0001) // =======================================================
(PID.TID 0000.0001) %MON time_tsnumber                =                    43
(PID.TID 0000.0001) %MON time_secondsf                =   4.3000000000000E+03
(PID.TID 0000.0001) %MON dynstat_eta_max              =   5.7798986766709E+00
(PID.TID 0000.0001) %MON dynstat_eta_min              =  -1.4201196850196E+01
(PID.TID 0000.0001) %MON dynstat_eta_mean             =  -2.5291792655094E+00
(PID.TID 0000.0001) %MON dynstat_eta_sd               =   4.9430149275634E+00
(PID.TID 0000.0001) %MON dynstat_eta_del2             =   1.9057747781656E-01
(PID.TID 0000.0001) %MON dynstat_uvel_max             =   3.2482145562795E-04
(PID.TID 0000.0001) %MON dynstat_uvel_min             =  -4.4058491860710E-04
(PID.TID 0000.0001) %MON dynstat_uvel_mean            =  -1.3999295822726E-06
(PID.TID 0000.0001) %MON dynstat_uvel_sd              =   2.2128358071818E-05
(PID.TID 0000.0001) %MON dynstat_uvel_del2            =   7.7075081650520E-08
(PID.TID 0000.0001) %MON dynstat_vvel_max             =   1.1754777931081E-03
(PID.TID 0000.0001) %MON dynstat_vvel_min             =  -1.7788662154883E-04
(PID.TID 0000.0001) %MON dynstat_vvel_mean            =   3.6864355681280E-04
(PID.TID 0000.0001) %MON dynstat_vvel_sd              =   1.1352276428029E-04
(PID.TID 0000.0001) %MON dynstat_vvel_del2            =   3.6642135578417E-07
(PID.TID 0000.0001) %MON dynstat_wvel_max             =   4.1509839204084E-04
(PID.TID 0000.0001) %MON dynstat_wvel_min             =  -2.8787207453652E-04
(PID.TID 0000.0001) %MON dynstat_wvel_mean            =   2.7044600540122E-07
(PID.TID 0000.0001) %MON dynstat_wvel_sd              =   3.9301068560398E-05
(PID.TID 0000.0001) %MON dynstat_wvel_del2            =   2.3196604355022E-07
(PID.TID 0000.0001) %MON dynstat_theta_max            =   1.2000000000000E+00
(PID.TID 0000.0001) %MON dynstat_theta_min            =  -1.0000000000000E+00
(PID.TID 0000.0001) %MON dynstat_theta_mean           =   5.6549524151558E-01
(PID.TID 0000.0001) %MON dynstat_theta_sd             =   8.4906716686814E-01
(PID.TID 0000.0001) %MON dynstat_theta_del2           =   3.7142605118981E-06
(PID.TID 0000.0001) %MON dynstat_salt_max             =   3.4700000000000E+01
(PID.TID 0000.0001) %MON dynstat_salt_min             =   3.4000000000000E+01
(PID.TID 0000.0001) %MON dynstat_salt_mean            =   3.4498111404976E+01
(PID.TID 0000.0001) %MON dynstat_salt_sd              =   2.7015783748307E-01
(PID.TID 0000.0001) %MON dynstat_salt_del2            =   1.1823317675301E-06
(PID.TID 0000.0001) %MON advcfl_uvel_max              =   4.4058491860710E-05
(PID.TID 0000.0001) %MON advcfl_vvel_max              =   1.1754777931081E-04
(PID.TID 0000.0001) %MON advcfl_wvel_max              =   2.0754919602042E-03
(PID.TID 0000.0001) %MON advcfl_W_hf_max              =   2.0754919602042E-03
(PID.TID 0000.0001) %MON pe_b_mean                    =  -6.8340702381366E-01
(PID.TID 0000.0001) %MON ke_max                       =   5.0266075876880E-07
(PID.TID 0000.0001) %MON ke_mean                      =   7.4281751549964E-08
(PID.TID 0000.0001) %MON ke_vol                       =   4.6182987293225E+12
(PID.TID 0000.0001) // =======================================================
(PID.TID 0000.0001) // End MONITOR dynamic field statistics
(PID.TID 0000.0001) // =======================================================
(PID.TID 0000.0001) // =======================================================
(PID.TID 0000.0001) // Begin OBCS MONITOR field statistics
(PID.TID 0000.0001) // =======================================================
(PID.TID 0000.0001) %MON obc_N_vVel_max               =   3.1285922573462E-04
(PID.TID 0000.0001) %MON obc_N_vVel_min               =   3.1285922573461E-04
(PID.TID 0000.0001) %MON obc_N_vVel_mean              =   3.1285922573461E-04
(PID.TID 0000.0001) %MON obc_N_vVel_sd                =   3.9182230882103E-11
(PID.TID 0000.0001) %MON obc_N_vVel_Int               =   2.0648708898484E+04
(PID.TID 0000.0001) // =======================================================
(PID.TID 0000.0001) // End OBCS MONITOR field statistics
(PID.TID 0000.0001) // =======================================================
 cg2d: Sum(rhs),rhsMax =   3.01498866236556E+00  4.53056168991474E+02
(PID.TID 0000.0001)      cg2d_init_res =   1.02710548609375E-05
(PID.TID 0000.0001)      cg2d_iters(min,last) =      -1      89
(PID.TID 0000.0001)      cg2d_last_res =   9.20432876613717E-12
(PID.TID 0000.0001) // =======================================================
(PID.TID 0000.0001) // Begin MONITOR dynamic field statistics
(PID.TID 0000.0001) // =======================================================
(PID.TID 0000.0001) %MON time_tsnumber                =                    44
(PID.TID 0000.0001) %MON time_secondsf                =   4.4000000000000E+03
(PID.TID 0000.0001) %MON dynstat_eta_max              =   5.7792379405160E+00
(PID.TID 0000.0001) %MON dynstat_eta_min              =  -1.4201836439574E+01
(PID.TID 0000.0001) %MON dynstat_eta_mean             =  -2.5295540980075E+00
(PID.TID 0000.0001) %MON dynstat_eta_sd               =   4.9431534687046E+00
(PID.TID 0000.0001) %MON dynstat_eta_del2             =   1.9057747348313E-01
(PID.TID 0000.0001) %MON dynstat_uvel_max             =   3.6610953992167E-04
(PID.TID 0000.0001) %MON dynstat_uvel_min             =  -4.8207457788507E-04
(PID.TID 0000.0001) %MON dynstat_uvel_mean            =  -6.8897117672456E-07
(PID.TID 0000.0001) %MON dynstat_uvel_sd              =   2.3185366989313E-05
(PID.TID 0000.0001) %MON dynstat_uvel_del2            =   8.6667984585268E-08
(PID.TID 0000.0001) %MON dynstat_vvel_max             =   1.2318569965846E-03
(PID.TID 0000.0001) %MON dynstat_vvel_min             =  -1.6761285309390E-04
(PID.TID 0000.0001) %MON dynstat_vvel_mean            =   3.8623671979227E-04
(PID.TID 0000.0001) %MON dynstat_vvel_sd              =   1.1398495184232E-04
(PID.TID 0000.0001) %MON dynstat_vvel_del2            =   3.5600266437623E-07
(PID.TID 0000.0001) %MON dynstat_wvel_max             =   4.0447356051722E-04
(PID.TID 0000.0001) %MON dynstat_wvel_min             =  -2.4499409706831E-04
(PID.TID 0000.0001) %MON dynstat_wvel_mean            =   1.7212754371558E-07
(PID.TID 0000.0001) %MON dynstat_wvel_sd              =   3.8046113334615E-05
(PID.TID 0000.0001) %MON dynstat_wvel_del2            =   2.1823160039045E-07
(PID.TID 0000.0001) %MON dynstat_theta_max            =   1.2000000000000E+00
(PID.TID 0000.0001) %MON dynstat_theta_min            =  -1.0000000000000E+00
(PID.TID 0000.0001) %MON dynstat_theta_mean           =   5.6549517504960E-01
(PID.TID 0000.0001) %MON dynstat_theta_sd             =   8.4906705013129E-01
(PID.TID 0000.0001) %MON dynstat_theta_del2           =   3.7005288714175E-06
(PID.TID 0000.0001) %MON dynstat_salt_max             =   3.4700000000000E+01
(PID.TID 0000.0001) %MON dynstat_salt_min             =   3.4000000000000E+01
(PID.TID 0000.0001) %MON dynstat_salt_mean            =   3.4498111368012E+01
(PID.TID 0000.0001) %MON dynstat_salt_sd              =   2.7015780205449E-01
(PID.TID 0000.0001) %MON dynstat_salt_del2            =   1.1779008745937E-06
(PID.TID 0000.0001) %MON advcfl_uvel_max              =   4.8207457788507E-05
(PID.TID 0000.0001) %MON advcfl_vvel_max              =   1.2318569965846E-04
(PID.TID 0000.0001) %MON advcfl_wvel_max              =   2.0223678025861E-03
(PID.TID 0000.0001) %MON advcfl_W_hf_max              =   2.0223678025861E-03
(PID.TID 0000.0001) %MON pe_b_mean                    =  -6.8348918968264E-01
(PID.TID 0000.0001) %MON ke_max                       =   5.5616600218588E-07
(PID.TID 0000.0001) %MON ke_mean                      =   8.0936427024423E-08
(PID.TID 0000.0001) %MON ke_vol                       =   4.6182966751629E+12
(PID.TID 0000.0001) // =======================================================
(PID.TID 0000.0001) // End MONITOR dynamic field statistics
(PID.TID 0000.0001) // =======================================================
(PID.TID 0000.0001) // =======================================================
(PID.TID 0000.0001) // Begin OBCS MONITOR field statistics
(PID.TID 0000.0001) // =======================================================
(PID.TID 0000.0001) %MON obc_N_vVel_max               =   3.3897215504422E-04
(PID.TID 0000.0001) %MON obc_N_vVel_min               =   3.3897215504421E-04
(PID.TID 0000.0001) %MON obc_N_vVel_mean              =   3.3897215504421E-04
(PID.TID 0000.0001) %MON obc_N_vVel_sd                =  -1.1911400820764E-21
(PID.TID 0000.0001) %MON obc_N_vVel_Int               =   2.2372162232918E+04
(PID.TID 0000.0001) // =======================================================
(PID.TID 0000.0001) // End OBCS MONITOR field statistics
(PID.TID 0000.0001) // =======================================================
 cg2d: Sum(rhs),rhsMax =   3.01545611207189E+00  4.53055943968190E+02
(PID.TID 0000.0001)      cg2d_init_res =   1.01176883369648E-05
(PID.TID 0000.0001)      cg2d_iters(min,last) =      -1      87
(PID.TID 0000.0001)      cg2d_last_res =   8.53589481649678E-12
(PID.TID 0000.0001) // =======================================================
(PID.TID 0000.0001) // Begin MONITOR dynamic field statistics
(PID.TID 0000.0001) // =======================================================
(PID.TID 0000.0001) %MON time_tsnumber                =                    45
(PID.TID 0000.0001) %MON time_secondsf                =   4.5000000000000E+03
(PID.TID 0000.0001) %MON dynstat_eta_max              =   5.7785748082830E+00
(PID.TID 0000.0001) %MON dynstat_eta_min              =  -1.4202486647257E+01
(PID.TID 0000.0001) %MON dynstat_eta_mean             =  -2.5299450284248E+00
(PID.TID 0000.0001) %MON dynstat_eta_sd               =   4.9432868847477E+00
(PID.TID 0000.0001) %MON dynstat_eta_del2             =   1.9057746918297E-01
(PID.TID 0000.0001) %MON dynstat_uvel_max             =   4.0600443944072E-04
(PID.TID 0000.0001) %MON dynstat_uvel_min             =  -5.2237982992764E-04
(PID.TID 0000.0001) %MON dynstat_uvel_mean            =  -3.4090977462592E-08
(PID.TID 0000.0001) %MON dynstat_uvel_sd              =   2.4241279105828E-05
(PID.TID 0000.0001) %MON dynstat_uvel_del2            =   9.6096936870313E-08
(PID.TID 0000.0001) %MON dynstat_vvel_max             =   1.2681016738085E-03
(PID.TID 0000.0001) %MON dynstat_vvel_min             =  -1.7184261453362E-04
(PID.TID 0000.0001) %MON dynstat_vvel_mean            =   3.9130345604905E-04
(PID.TID 0000.0001) %MON dynstat_vvel_sd              =   1.1255607095408E-04
(PID.TID 0000.0001) %MON dynstat_vvel_del2            =   3.4426044575391E-07
(PID.TID 0000.0001) %MON dynstat_wvel_max             =   3.8452165378989E-04
(PID.TID 0000.0001) %MON dynstat_wvel_min             =  -2.3606200983418E-04
(PID.TID 0000.0001) %MON dynstat_wvel_mean            =   7.4358523049006E-08
(PID.TID 0000.0001) %MON dynstat_wvel_sd              =   3.6422066040857E-05
(PID.TID 0000.0001) %MON dynstat_wvel_del2            =   2.0230063049844E-07
(PID.TID 0000.0001) %MON dynstat_theta_max            =   1.2000000000000E+00
(PID.TID 0000.0001) %MON dynstat_theta_min            =  -1.0000000000000E+00
(PID.TID 0000.0001) %MON dynstat_theta_mean           =   5.6549511762579E-01
(PID.TID 0000.0001) %MON dynstat_theta_sd             =   8.4906693306518E-01
(PID.TID 0000.0001) %MON dynstat_theta_del2           =   3.6873203839775E-06
(PID.TID 0000.0001) %MON dynstat_salt_max             =   3.4700000000000E+01
(PID.TID 0000.0001) %MON dynstat_salt_min             =   3.4000000000000E+01
(PID.TID 0000.0001) %MON dynstat_salt_mean            =   3.4498111333925E+01
(PID.TID 0000.0001) %MON dynstat_salt_sd              =   2.7015776654594E-01
(PID.TID 0000.0001) %MON dynstat_salt_del2            =   1.1736287516158E-06
(PID.TID 0000.0001) %MON advcfl_uvel_max              =   5.2237982992764E-05
(PID.TID 0000.0001) %MON advcfl_vvel_max              =   1.2681016738085E-04
(PID.TID 0000.0001) %MON advcfl_wvel_max              =   1.9226082689494E-03
(PID.TID 0000.0001) %MON advcfl_W_hf_max              =   1.9226082689494E-03
(PID.TID 0000.0001) %MON pe_b_mean                    =  -6.8357184385165E-01
(PID.TID 0000.0001) %MON ke_max                       =   5.9191733240663E-07
(PID.TID 0000.0001) %MON ke_mean                      =   8.2732806376850E-08
(PID.TID 0000.0001) %MON ke_vol                       =   4.6182944486578E+12
(PID.TID 0000.0001) // =======================================================
(PID.TID 0000.0001) // End MONITOR dynamic field statistics
(PID.TID 0000.0001) // =======================================================
(PID.TID 0000.0001) // =======================================================
(PID.TID 0000.0001) // Begin OBCS MONITOR field statistics
(PID.TID 0000.0001) // =======================================================
(PID.TID 0000.0001) %MON obc_N_vVel_max               =   3.5346027611222E-04
(PID.TID 0000.0001) %MON obc_N_vVel_min               =   3.5346027611222E-04
(PID.TID 0000.0001) %MON obc_N_vVel_mean              =   3.5346027611222E-04
(PID.TID 0000.0001) %MON obc_N_vVel_sd                =   6.9977919562630E-11
(PID.TID 0000.0001) %MON obc_N_vVel_Int               =   2.3328378223406E+04
(PID.TID 0000.0001) // =======================================================
(PID.TID 0000.0001) // End OBCS MONITOR field statistics
(PID.TID 0000.0001) // =======================================================
 cg2d: Sum(rhs),rhsMax =   3.01592800593703E+00  4.53055709820001E+02
(PID.TID 0000.0001)      cg2d_init_res =   9.72814229058487E-06
(PID.TID 0000.0001)      cg2d_iters(min,last) =      -1      86
(PID.TID 0000.0001)      cg2d_last_res =   8.81315814342696E-12
(PID.TID 0000.0001) // =======================================================
(PID.TID 0000.0001) // Begin MONITOR dynamic field statistics
(PID.TID 0000.0001) // =======================================================
(PID.TID 0000.0001) %MON time_tsnumber                =                    46
(PID.TID 0000.0001) %MON time_secondsf                =   4.6000000000000E+03
(PID.TID 0000.0001) %MON dynstat_eta_max              =   5.7779276861830E+00
(PID.TID 0000.0001) %MON dynstat_eta_min              =  -1.4203128494357E+01
(PID.TID 0000.0001) %MON dynstat_eta_mean             =  -2.5303396361034E+00
(PID.TID 0000.0001) %MON dynstat_eta_sd               =   4.9434116794833E+00
(PID.TID 0000.0001) %MON dynstat_eta_del2             =   1.9057746497283E-01
(PID.TID 0000.0001) %MON dynstat_uvel_max             =   4.4447342187581E-04
(PID.TID 0000.0001) %MON dynstat_uvel_min             =  -5.6146994728223E-04
(PID.TID 0000.0001) %MON dynstat_uvel_mean            =   5.4765615552940E-07
(PID.TID 0000.0001) %MON dynstat_uvel_sd              =   2.5281241702529E-05
(PID.TID 0000.0001) %MON dynstat_uvel_del2            =   1.0533816533870E-07
(PID.TID 0000.0001) %MON dynstat_vvel_max             =   1.2852854340277E-03
(PID.TID 0000.0001) %MON dynstat_vvel_min             =  -2.1387594589761E-04
(PID.TID 0000.0001) %MON dynstat_vvel_mean            =   3.8458746692858E-04
(PID.TID 0000.0001) %MON dynstat_vvel_sd              =   1.0947903369738E-04
(PID.TID 0000.0001) %MON dynstat_vvel_del2            =   3.3268631395326E-07
(PID.TID 0000.0001) %MON dynstat_wvel_max             =   3.5868739671999E-04
(PID.TID 0000.0001) %MON dynstat_wvel_min             =  -2.5975410452070E-04
(PID.TID 0000.0001) %MON dynstat_wvel_mean            =  -2.0425622359216E-08
(PID.TID 0000.0001) %MON dynstat_wvel_sd              =   3.4594298916867E-05
(PID.TID 0000.0001) %MON dynstat_wvel_del2            =   1.8564117618550E-07
(PID.TID 0000.0001) %MON dynstat_theta_max            =   1.2000000000000E+00
(PID.TID 0000.0001) %MON dynstat_theta_min            =  -1.0000000000000E+00
(PID.TID 0000.0001) %MON dynstat_theta_mean           =   5.6549506436911E-01
(PID.TID 0000.0001) %MON dynstat_theta_sd             =   8.4906681791297E-01
(PID.TID 0000.0001) %MON dynstat_theta_del2           =   3.6738799980854E-06
(PID.TID 0000.0001) %MON dynstat_salt_max             =   3.4700000000000E+01
(PID.TID 0000.0001) %MON dynstat_salt_min             =   3.4000000000000E+01
(PID.TID 0000.0001) %MON dynstat_salt_mean            =   3.4498111301166E+01
(PID.TID 0000.0001) %MON dynstat_salt_sd              =   2.7015773166332E-01
(PID.TID 0000.0001) %MON dynstat_salt_del2            =   1.1692757223790E-06
(PID.TID 0000.0001) %MON advcfl_uvel_max              =   5.6146994728223E-05
(PID.TID 0000.0001) %MON advcfl_vvel_max              =   1.2852854340277E-04
(PID.TID 0000.0001) %MON advcfl_wvel_max              =   1.7934369835999E-03
(PID.TID 0000.0001) %MON advcfl_W_hf_max              =   1.7934369835999E-03
(PID.TID 0000.0001) %MON pe_b_mean                    =  -6.8365251013431E-01
(PID.TID 0000.0001) %MON ke_max                       =   6.0932695487920E-07
(PID.TID 0000.0001) %MON ke_mean                      =   7.9802877440652E-08
(PID.TID 0000.0001) %MON ke_vol                       =   4.6182921265312E+12
(PID.TID 0000.0001) // =======================================================
(PID.TID 0000.0001) // End MONITOR dynamic field statistics
(PID.TID 0000.0001) // =======================================================
(PID.TID 0000.0001) // =======================================================
(PID.TID 0000.0001) // Begin OBCS MONITOR field statistics
(PID.TID 0000.0001) // =======================================================
(PID.TID 0000.0001) %MON obc_N_vVel_max               =   3.5676980521685E-04
(PID.TID 0000.0001) %MON obc_N_vVel_min               =   3.5676980521685E-04
(PID.TID 0000.0001) %MON obc_N_vVel_mean              =   3.5676980521685E-04
(PID.TID 0000.0001) %MON obc_N_vVel_sd                =   7.3303241805151E-11
(PID.TID 0000.0001) %MON obc_N_vVel_Int               =   2.3546807144312E+04
(PID.TID 0000.0001) // =======================================================
(PID.TID 0000.0001) // End OBCS MONITOR field statistics
(PID.TID 0000.0001) // =======================================================
 cg2d: Sum(rhs),rhsMax =   3.01639041171045E+00  4.53055472351539E+02
(PID.TID 0000.0001)      cg2d_init_res =   9.13461542422428E-06
(PID.TID 0000.0001)      cg2d_iters(min,last) =      -1      88
(PID.TID 0000.0001)      cg2d_last_res =   9.08131960195401E-12
(PID.TID 0000.0001) // =======================================================
(PID.TID 0000.0001) // Begin MONITOR dynamic field statistics
(PID.TID 0000.0001) // =======================================================
(PID.TID 0000.0001) %MON time_tsnumber                =                    47
(PID.TID 0000.0001) %MON time_secondsf                =   4.7000000000000E+03
(PID.TID 0000.0001) %MON dynstat_eta_max              =   5.7773135257621E+00
(PID.TID 0000.0001) %MON dynstat_eta_min              =  -1.4203744293521E+01
(PID.TID 0000.0001) %MON dynstat_eta_mean             =  -2.5307262643965E+00
(PID.TID 0000.0001) %MON dynstat_eta_sd               =   4.9435248135325E+00
(PID.TID 0000.0001) %MON dynstat_eta_del2             =   1.9057746090671E-01
(PID.TID 0000.0001) %MON dynstat_uvel_max             =   4.8150381128664E-04
(PID.TID 0000.0001) %MON dynstat_uvel_min             =  -5.9932077541802E-04
(PID.TID 0000.0001) %MON dynstat_uvel_mean            =   1.0463913703219E-06
(PID.TID 0000.0001) %MON dynstat_uvel_sd              =   2.6296473725425E-05
(PID.TID 0000.0001) %MON dynstat_uvel_del2            =   1.1437657002125E-07
(PID.TID 0000.0001) %MON dynstat_vvel_max             =   1.2848470292148E-03
(PID.TID 0000.0001) %MON dynstat_vvel_min             =  -2.6033109794188E-04
(PID.TID 0000.0001) %MON dynstat_vvel_mean            =   3.6711175438643E-04
(PID.TID 0000.0001) %MON dynstat_vvel_sd              =   1.0509743367287E-04
(PID.TID 0000.0001) %MON dynstat_vvel_del2            =   3.2276252334857E-07
(PID.TID 0000.0001) %MON dynstat_wvel_max             =   3.2820004133713E-04
(PID.TID 0000.0001) %MON dynstat_wvel_min             =  -2.7936889122107E-04
(PID.TID 0000.0001) %MON dynstat_wvel_mean            =  -1.0963111997421E-07
(PID.TID 0000.0001) %MON dynstat_wvel_sd              =   3.2756738745717E-05
(PID.TID 0000.0001) %MON dynstat_wvel_del2            =   1.7003434698480E-07
(PID.TID 0000.0001) %MON dynstat_theta_max            =   1.2000000000000E+00
(PID.TID 0000.0001) %MON dynstat_theta_min            =  -1.0000000000000E+00
(PID.TID 0000.0001) %MON dynstat_theta_mean           =   5.6549501079701E-01
(PID.TID 0000.0001) %MON dynstat_theta_sd             =   8.4906670667057E-01
(PID.TID 0000.0001) %MON dynstat_theta_del2           =   3.6595230131298E-06
(PID.TID 0000.0001) %MON dynstat_salt_max             =   3.4700000000000E+01
(PID.TID 0000.0001) %MON dynstat_salt_min             =   3.4000000000000E+01
(PID.TID 0000.0001) %MON dynstat_salt_mean            =   3.4498111268307E+01
(PID.TID 0000.0001) %MON dynstat_salt_sd              =   2.7015769803345E-01
(PID.TID 0000.0001) %MON dynstat_salt_del2            =   1.1646244358801E-06
(PID.TID 0000.0001) %MON advcfl_uvel_max              =   5.9932077541802E-05
(PID.TID 0000.0001) %MON advcfl_vvel_max              =   1.2848470292148E-04
(PID.TID 0000.0001) %MON advcfl_wvel_max              =   1.6410002066857E-03
(PID.TID 0000.0001) %MON advcfl_W_hf_max              =   1.6410002066857E-03
(PID.TID 0000.0001) %MON pe_b_mean                    =  -6.8372894577554E-01
(PID.TID 0000.0001) %MON ke_max                       =   6.0932590417616E-07
(PID.TID 0000.0001) %MON ke_mean                      =   7.2808981105765E-08
(PID.TID 0000.0001) %MON ke_vol                       =   4.6182897825615E+12
(PID.TID 0000.0001) // =======================================================
(PID.TID 0000.0001) // End MONITOR dynamic field statistics
(PID.TID 0000.0001) // =======================================================
(PID.TID 0000.0001) // =======================================================
(PID.TID 0000.0001) // Begin OBCS MONITOR field statistics
(PID.TID 0000.0001) // =======================================================
(PID.TID 0000.0001) %MON obc_N_vVel_max               =   3.4958835223452E-04
(PID.TID 0000.0001) %MON obc_N_vVel_min               =   3.4958835223451E-04
(PID.TID 0000.0001) %MON obc_N_vVel_mean              =   3.4958835223451E-04
(PID.TID 0000.0001) %MON obc_N_vVel_sd                =   7.3663456464843E-11
(PID.TID 0000.0001) %MON obc_N_vVel_Int               =   2.3072831247478E+04
(PID.TID 0000.0001) // =======================================================
(PID.TID 0000.0001) // End OBCS MONITOR field statistics
(PID.TID 0000.0001) // =======================================================
 cg2d: Sum(rhs),rhsMax =   3.01683059561363E+00  4.53055237269327E+02
(PID.TID 0000.0001)      cg2d_init_res =   8.37899660009719E-06
(PID.TID 0000.0001)      cg2d_iters(min,last) =      -1      88
(PID.TID 0000.0001)      cg2d_last_res =   9.22366882173304E-12
(PID.TID 0000.0001) // =======================================================
(PID.TID 0000.0001) // Begin MONITOR dynamic field statistics
(PID.TID 0000.0001) // =======================================================
(PID.TID 0000.0001) %MON time_tsnumber                =                    48
(PID.TID 0000.0001) %MON time_secondsf                =   4.8000000000000E+03
(PID.TID 0000.0001) %MON dynstat_eta_max              =   5.7767474909947E+00
(PID.TID 0000.0001) %MON dynstat_eta_min              =  -1.4204318045523E+01
(PID.TID 0000.0001) %MON dynstat_eta_mean             =  -2.5310942616613E+00
(PID.TID 0000.0001) %MON dynstat_eta_sd               =   4.9436237647235E+00
(PID.TID 0000.0001) %MON dynstat_eta_del2             =   1.9057745703271E-01
(PID.TID 0000.0001) %MON dynstat_uvel_max             =   5.1710015176809E-04
(PID.TID 0000.0001) %MON dynstat_uvel_min             =  -6.3591591418444E-04
(PID.TID 0000.0001) %MON dynstat_uvel_mean            =   1.4580092490630E-06
(PID.TID 0000.0001) %MON dynstat_uvel_sd              =   2.7282770279159E-05
(PID.TID 0000.0001) %MON dynstat_uvel_del2            =   1.2320325852372E-07
(PID.TID 0000.0001) %MON dynstat_vvel_max             =   1.2685562501495E-03
(PID.TID 0000.0001) %MON dynstat_vvel_min             =  -3.1033208674280E-04
(PID.TID 0000.0001) %MON dynstat_vvel_mean            =   3.4013486457939E-04
(PID.TID 0000.0001) %MON dynstat_vvel_sd              =   9.9832654882112E-05
(PID.TID 0000.0001) %MON dynstat_vvel_del2            =   3.1576131731601E-07
(PID.TID 0000.0001) %MON dynstat_wvel_max             =   2.9117496856174E-04
(PID.TID 0000.0001) %MON dynstat_wvel_min             =  -2.9412491048797E-04
(PID.TID 0000.0001) %MON dynstat_wvel_mean            =  -1.9067050155552E-07
(PID.TID 0000.0001) %MON dynstat_wvel_sd              =   3.1118751169077E-05
(PID.TID 0000.0001) %MON dynstat_wvel_del2            =   1.5747557382771E-07
(PID.TID 0000.0001) %MON dynstat_theta_max            =   1.2000000000000E+00
(PID.TID 0000.0001) %MON dynstat_theta_min            =  -1.0000000000000E+00
(PID.TID 0000.0001) %MON dynstat_theta_mean           =   5.6549495285891E-01
(PID.TID 0000.0001) %MON dynstat_theta_sd             =   8.4906660101096E-01
(PID.TID 0000.0001) %MON dynstat_theta_del2           =   3.6437022445878E-06
(PID.TID 0000.0001) %MON dynstat_salt_max             =   3.4700000000000E+01
(PID.TID 0000.0001) %MON dynstat_salt_min             =   3.4000000000000E+01
(PID.TID 0000.0001) %MON dynstat_salt_mean            =   3.4498111234059E+01
(PID.TID 0000.0001) %MON dynstat_salt_sd              =   2.7015766618057E-01
(PID.TID 0000.0001) %MON dynstat_salt_del2            =   1.1595012366907E-06
(PID.TID 0000.0001) %MON advcfl_uvel_max              =   6.3591591418444E-05
(PID.TID 0000.0001) %MON advcfl_vvel_max              =   1.2685562501495E-04
(PID.TID 0000.0001) %MON advcfl_wvel_max              =   1.4706245524398E-03
(PID.TID 0000.0001) %MON advcfl_W_hf_max              =   1.4706245524398E-03
(PID.TID 0000.0001) %MON pe_b_mean                    =  -6.8379919100153E-01
(PID.TID 0000.0001) %MON ke_max                       =   5.9408519459199E-07
(PID.TID 0000.0001) %MON ke_mean                      =   6.2797517142261E-08
(PID.TID 0000.0001) %MON ke_vol                       =   4.6182874859895E+12
(PID.TID 0000.0001) // =======================================================
(PID.TID 0000.0001) // End MONITOR dynamic field statistics
(PID.TID 0000.0001) // =======================================================
(PID.TID 0000.0001) // =======================================================
(PID.TID 0000.0001) // Begin OBCS MONITOR field statistics
(PID.TID 0000.0001) // =======================================================
(PID.TID 0000.0001) %MON obc_N_vVel_max               =   3.3282042060509E-04
(PID.TID 0000.0001) %MON obc_N_vVel_min               =   3.3282042060509E-04
(PID.TID 0000.0001) %MON obc_N_vVel_mean              =   3.3282042060509E-04
(PID.TID 0000.0001) %MON obc_N_vVel_sd                =   5.1448789686150E-11
(PID.TID 0000.0001) %MON obc_N_vVel_Int               =   2.1966147759936E+04
(PID.TID 0000.0001) // =======================================================
(PID.TID 0000.0001) // End OBCS MONITOR field statistics
(PID.TID 0000.0001) // =======================================================
 cg2d: Sum(rhs),rhsMax =   3.01723728144988E+00  4.53055010128207E+02
(PID.TID 0000.0001)      cg2d_init_res =   7.51121598445092E-06
(PID.TID 0000.0001)      cg2d_iters(min,last) =      -1      88
(PID.TID 0000.0001)      cg2d_last_res =   8.60498197996315E-12
(PID.TID 0000.0001) // =======================================================
(PID.TID 0000.0001) // Begin MONITOR dynamic field statistics
(PID.TID 0000.0001) // =======================================================
(PID.TID 0000.0001) %MON time_tsnumber                =                    49
(PID.TID 0000.0001) %MON time_secondsf                =   4.9000000000000E+03
(PID.TID 0000.0001) %MON dynstat_eta_max              =   5.7762426566465E+00
(PID.TID 0000.0001) %MON dynstat_eta_min              =  -1.4204835785580E+01
(PID.TID 0000.0001) %MON dynstat_eta_mean             =  -2.5314341983453E+00
(PID.TID 0000.0001) %MON dynstat_eta_sd               =   4.9437065770869E+00
(PID.TID 0000.0001) %MON dynstat_eta_del2             =   1.9057745338957E-01
(PID.TID 0000.0001) %MON dynstat_uvel_max             =   5.5128016110118E-04
(PID.TID 0000.0001) %MON dynstat_uvel_min             =  -6.7124826414400E-04
(PID.TID 0000.0001) %MON dynstat_uvel_mean            =   1.7826362164985E-06
(PID.TID 0000.0001) %MON dynstat_uvel_sd              =   2.8239002657642E-05
(PID.TID 0000.0001) %MON dynstat_uvel_del2            =   1.3181406216546E-07
(PID.TID 0000.0001) %MON dynstat_vvel_max             =   1.2384727896464E-03
(PID.TID 0000.0001) %MON dynstat_vvel_min             =  -3.6291863245008E-04
(PID.TID 0000.0001) %MON dynstat_vvel_mean            =   3.0510332756562E-04
(PID.TID 0000.0001) %MON dynstat_vvel_sd              =   9.4165845184540E-05
(PID.TID 0000.0001) %MON dynstat_vvel_del2            =   3.1252093879207E-07
(PID.TID 0000.0001) %MON dynstat_wvel_max             =   2.4889353402410E-04
(PID.TID 0000.0001) %MON dynstat_wvel_min             =  -3.0348257006548E-04
(PID.TID 0000.0001) %MON dynstat_wvel_mean            =  -2.6117823979892E-07
(PID.TID 0000.0001) %MON dynstat_wvel_sd              =   2.9879685719730E-05
(PID.TID 0000.0001) %MON dynstat_wvel_del2            =   1.4982943130423E-07
(PID.TID 0000.0001) %MON dynstat_theta_max            =   1.2000000000000E+00
(PID.TID 0000.0001) %MON dynstat_theta_min            =  -1.0000000000000E+00
(PID.TID 0000.0001) %MON dynstat_theta_mean           =   5.6549488694969E-01
(PID.TID 0000.0001) %MON dynstat_theta_sd             =   8.4906650216429E-01
(PID.TID 0000.0001) %MON dynstat_theta_del2           =   3.6260579204677E-06
(PID.TID 0000.0001) %MON dynstat_salt_max             =   3.4700000000000E+01
(PID.TID 0000.0001) %MON dynstat_salt_min             =   3.4000000000000E+01
(PID.TID 0000.0001) %MON dynstat_salt_mean            =   3.4498111197277E+01
(PID.TID 0000.0001) %MON dynstat_salt_sd              =   2.7015763648788E-01
(PID.TID 0000.0001) %MON dynstat_salt_del2            =   1.1537920083832E-06
(PID.TID 0000.0001) %MON advcfl_uvel_max              =   6.7124826414400E-05
(PID.TID 0000.0001) %MON advcfl_vvel_max              =   1.2384727896464E-04
(PID.TID 0000.0001) %MON advcfl_wvel_max              =   1.5174128503274E-03
(PID.TID 0000.0001) %MON advcfl_W_hf_max              =   1.5174128503274E-03
(PID.TID 0000.0001) %MON pe_b_mean                    =  -6.8386160722725E-01
(PID.TID 0000.0001) %MON ke_max                       =   5.6666882017970E-07
(PID.TID 0000.0001) %MON ke_mean                      =   5.1030736922585E-08
(PID.TID 0000.0001) %MON ke_vol                       =   4.6182853000857E+12
(PID.TID 0000.0001) // =======================================================
(PID.TID 0000.0001) // End MONITOR dynamic field statistics
(PID.TID 0000.0001) // =======================================================
(PID.TID 0000.0001) // =======================================================
(PID.TID 0000.0001) // Begin OBCS MONITOR field statistics
(PID.TID 0000.0001) // =======================================================
(PID.TID 0000.0001) %MON obc_N_vVel_max               =   3.0756589191591E-04
(PID.TID 0000.0001) %MON obc_N_vVel_min               =   3.0756589191591E-04
(PID.TID 0000.0001) %MON obc_N_vVel_mean              =   3.0756589191591E-04
(PID.TID 0000.0001) %MON obc_N_vVel_sd                =  -5.9557004103818E-22
(PID.TID 0000.0001) %MON obc_N_vVel_Int               =   2.0299348866450E+04
(PID.TID 0000.0001) // =======================================================
(PID.TID 0000.0001) // End OBCS MONITOR field statistics
(PID.TID 0000.0001) // =======================================================
 cg2d: Sum(rhs),rhsMax =   3.01760087634339E+00  4.53054796216639E+02
(PID.TID 0000.0001)      cg2d_init_res =   6.59208192840446E-06
(PID.TID 0000.0001)      cg2d_iters(min,last) =      -1      87
(PID.TID 0000.0001)      cg2d_last_res =   9.59700720318996E-12
(PID.TID 0000.0001) // =======================================================
(PID.TID 0000.0001) // Begin MONITOR dynamic field statistics
(PID.TID 0000.0001) // =======================================================
(PID.TID 0000.0001) %MON time_tsnumber                =                    50
(PID.TID 0000.0001) %MON time_secondsf                =   5.0000000000000E+03
(PID.TID 0000.0001) %MON dynstat_eta_max              =   5.7758097162659E+00
(PID.TID 0000.0001) %MON dynstat_eta_min              =  -1.4205285892416E+01
(PID.TID 0000.0001) %MON dynstat_eta_mean             =  -2.5317380557313E+00
(PID.TID 0000.0001) %MON dynstat_eta_sd               =   4.9437718930415E+00
(PID.TID 0000.0001) %MON dynstat_eta_del2             =   1.9057745000897E-01
(PID.TID 0000.0001) %MON dynstat_uvel_max             =   5.8407216130618E-04
(PID.TID 0000.0001) %MON dynstat_uvel_min             =  -7.0532064016149E-04
(PID.TID 0000.0001) %MON dynstat_uvel_mean            =   2.0232752874476E-06
(PID.TID 0000.0001) %MON dynstat_uvel_sd              =   2.9165819685568E-05
(PID.TID 0000.0001) %MON dynstat_uvel_del2            =   1.4020854912808E-07
(PID.TID 0000.0001) %MON dynstat_vvel_max             =   1.1968914133291E-03
(PID.TID 0000.0001) %MON dynstat_vvel_min             =  -4.1711065507588E-04
(PID.TID 0000.0001) %MON dynstat_vvel_mean            =   2.6360092172606E-04
(PID.TID 0000.0001) %MON dynstat_vvel_sd              =   8.8617706606342E-05
(PID.TID 0000.0001) %MON dynstat_vvel_del2            =   3.1327605589010E-07
(PID.TID 0000.0001) %MON dynstat_wvel_max             =   2.0341212471798E-04
(PID.TID 0000.0001) %MON dynstat_wvel_min             =  -3.0944811256252E-04
(PID.TID 0000.0001) %MON dynstat_wvel_mean            =  -3.1921975360457E-07
(PID.TID 0000.0001) %MON dynstat_wvel_sd              =   2.9190055605686E-05
(PID.TID 0000.0001) %MON dynstat_wvel_del2            =   1.4819722163606E-07
(PID.TID 0000.0001) %MON dynstat_theta_max            =   1.2000000000000E+00
(PID.TID 0000.0001) %MON dynstat_theta_min            =  -1.0000000000000E+00
(PID.TID 0000.0001) %MON dynstat_theta_mean           =   5.6549480991828E-01
(PID.TID 0000.0001) %MON dynstat_theta_sd             =   8.4906641108248E-01
(PID.TID 0000.0001) %MON dynstat_theta_del2           =   3.6064563002828E-06
(PID.TID 0000.0001) %MON dynstat_salt_max             =   3.4700000000000E+01
(PID.TID 0000.0001) %MON dynstat_salt_min             =   3.4000000000000E+01
(PID.TID 0000.0001) %MON dynstat_salt_mean            =   3.4498111156956E+01
(PID.TID 0000.0001) %MON dynstat_salt_sd              =   2.7015760925046E-01
(PID.TID 0000.0001) %MON dynstat_salt_del2            =   1.1474544747495E-06
(PID.TID 0000.0001) %MON advcfl_uvel_max              =   7.0532064016149E-05
(PID.TID 0000.0001) %MON advcfl_vvel_max              =   1.1968914133291E-04
(PID.TID 0000.0001) %MON advcfl_wvel_max              =   1.5472405628126E-03
(PID.TID 0000.0001) %MON advcfl_W_hf_max              =   1.5472405628126E-03
(PID.TID 0000.0001) %MON pe_b_mean                    =  -6.8391490325619E-01
(PID.TID 0000.0001) %MON ke_max                       =   5.3064999983736E-07
(PID.TID 0000.0001) %MON ke_mean                      =   3.8816942634276E-08
(PID.TID 0000.0001) %MON ke_vol                       =   4.6182832808618E+12
(PID.TID 0000.0001) // =======================================================
(PID.TID 0000.0001) // End MONITOR dynamic field statistics
(PID.TID 0000.0001) // =======================================================
(PID.TID 0000.0001) // =======================================================
(PID.TID 0000.0001) // Begin OBCS MONITOR field statistics
(PID.TID 0000.0001) // =======================================================
(PID.TID 0000.0001) %MON obc_N_vVel_max               =   2.7509451761039E-04
(PID.TID 0000.0001) %MON obc_N_vVel_min               =   2.7509451761039E-04
(PID.TID 0000.0001) %MON obc_N_vVel_mean              =   2.7509451761039E-04
(PID.TID 0000.0001) %MON obc_N_vVel_sd                =   5.5531336411054E-11
(PID.TID 0000.0001) %MON obc_N_vVel_Int               =   1.8156238162286E+04
(PID.TID 0000.0001) // =======================================================
(PID.TID 0000.0001) // End OBCS MONITOR field statistics
(PID.TID 0000.0001) // =======================================================
 cg2d: Sum(rhs),rhsMax =   3.01791365219315E+00  4.53054600408468E+02
(PID.TID 0000.0001)      cg2d_init_res =   5.69639340420361E-06
(PID.TID 0000.0001)      cg2d_iters(min,last) =      -1      87
(PID.TID 0000.0001)      cg2d_last_res =   8.37685319971613E-12
(PID.TID 0000.0001) // =======================================================
(PID.TID 0000.0001) // Begin MONITOR dynamic field statistics
(PID.TID 0000.0001) // =======================================================
(PID.TID 0000.0001) %MON time_tsnumber                =                    51
(PID.TID 0000.0001) %MON time_secondsf                =   5.1000000000000E+03
(PID.TID 0000.0001) %MON dynstat_eta_max              =   5.7754567376487E+00
(PID.TID 0000.0001) %MON dynstat_eta_min              =  -1.4205659364802E+01
(PID.TID 0000.0001) %MON dynstat_eta_mean             =  -2.5319993773363E+00
(PID.TID 0000.0001) %MON dynstat_eta_sd               =   4.9438189651469E+00
(PID.TID 0000.0001) %MON dynstat_eta_del2             =   1.9057744691544E-01
(PID.TID 0000.0001) %MON dynstat_uvel_max             =   6.1551353372735E-04
(PID.TID 0000.0001) %MON dynstat_uvel_min             =  -7.3814537798711E-04
(PID.TID 0000.0001) %MON dynstat_uvel_mean            =   2.1847810219069E-06
(PID.TID 0000.0001) %MON dynstat_uvel_sd              =   3.0064608466445E-05
(PID.TID 0000.0001) %MON dynstat_uvel_del2            =   1.4838927750940E-07
(PID.TID 0000.0001) %MON dynstat_vvel_max             =   1.1462734648511E-03
(PID.TID 0000.0001) %MON dynstat_vvel_min             =  -4.7196278581207E-04
(PID.TID 0000.0001) %MON dynstat_vvel_mean            =   2.1729569134540E-04
(PID.TID 0000.0001) %MON dynstat_vvel_sd              =   8.3714551043359E-05
(PID.TID 0000.0001) %MON dynstat_vvel_del2            =   3.1762797079450E-07
(PID.TID 0000.0001) %MON dynstat_wvel_max             =   1.8963563872859E-04
(PID.TID 0000.0001) %MON dynstat_wvel_min             =  -3.1232529403101E-04
(PID.TID 0000.0001) %MON dynstat_wvel_mean            =  -3.6344740727002E-07
(PID.TID 0000.0001) %MON dynstat_wvel_sd              =   2.9111015236984E-05
(PID.TID 0000.0001) %MON dynstat_wvel_del2            =   1.5236550181630E-07
(PID.TID 0000.0001) %MON dynstat_theta_max            =   1.2000000000000E+00
(PID.TID 0000.0001) %MON dynstat_theta_min            =  -1.0000000000000E+00
(PID.TID 0000.0001) %MON dynstat_theta_mean           =   5.6549471908396E-01
(PID.TID 0000.0001) %MON dynstat_theta_sd             =   8.4906632851134E-01
(PID.TID 0000.0001) %MON dynstat_theta_del2           =   3.5849845530076E-06
(PID.TID 0000.0001) %MON dynstat_salt_max             =   3.4700000000000E+01
(PID.TID 0000.0001) %MON dynstat_salt_min             =   3.4000000000000E+01
(PID.TID 0000.0001) %MON dynstat_salt_mean            =   3.4498111112244E+01
(PID.TID 0000.0001) %MON dynstat_salt_sd              =   2.7015758469863E-01
(PID.TID 0000.0001) %MON dynstat_salt_del2            =   1.1405166715714E-06
(PID.TID 0000.0001) %MON advcfl_uvel_max              =   7.3814537798711E-05
(PID.TID 0000.0001) %MON advcfl_vvel_max              =   1.1462734648511E-04
(PID.TID 0000.0001) %MON advcfl_wvel_max              =   1.5616264701550E-03
(PID.TID 0000.0001) %MON advcfl_W_hf_max              =   1.5616264701550E-03
(PID.TID 0000.0001) %MON pe_b_mean                    =  -6.8395814921483E-01
(PID.TID 0000.0001) %MON ke_max                       =   4.9871749144268E-07
(PID.TID 0000.0001) %MON ke_mean                      =   2.7357293726140E-08
(PID.TID 0000.0001) %MON ke_vol                       =   4.6182814759490E+12
(PID.TID 0000.0001) // =======================================================
(PID.TID 0000.0001) // End MONITOR dynamic field statistics
(PID.TID 0000.0001) // =======================================================
(PID.TID 0000.0001) // =======================================================
(PID.TID 0000.0001) // Begin OBCS MONITOR field statistics
(PID.TID 0000.0001) // =======================================================
(PID.TID 0000.0001) %MON obc_N_vVel_max               =   2.3681230866799E-04
(PID.TID 0000.0001) %MON obc_N_vVel_min               =   2.3681230866799E-04
(PID.TID 0000.0001) %MON obc_N_vVel_mean              =   2.3681230866799E-04
(PID.TID 0000.0001) %MON obc_N_vVel_sd                =  -5.5851234959580E-21
(PID.TID 0000.0001) %MON obc_N_vVel_Int               =   1.5629612372088E+04
(PID.TID 0000.0001) // =======================================================
(PID.TID 0000.0001) // End OBCS MONITOR field statistics
(PID.TID 0000.0001) // =======================================================
 cg2d: Sum(rhs),rhsMax =   3.01816987155932E+00  4.53054426990779E+02
(PID.TID 0000.0001)      cg2d_init_res =   4.91713897323046E-06
(PID.TID 0000.0001)      cg2d_iters(min,last) =      -1      86
(PID.TID 0000.0001)      cg2d_last_res =   9.56274144834265E-12
(PID.TID 0000.0001) // =======================================================
(PID.TID 0000.0001) // Begin MONITOR dynamic field statistics
(PID.TID 0000.0001) // =======================================================
(PID.TID 0000.0001) %MON time_tsnumber                =                    52
(PID.TID 0000.0001) %MON time_secondsf                =   5.2000000000000E+03
(PID.TID 0000.0001) %MON dynstat_eta_max              =   5.7751889781940E+00
(PID.TID 0000.0001) %MON dynstat_eta_min              =  -1.4205950035091E+01
(PID.TID 0000.0001) %MON dynstat_eta_mean             =  -2.5322133735558E+00
(PID.TID 0000.0001) %MON dynstat_eta_sd               =   4.9438476461261E+00
(PID.TID 0000.0001) %MON dynstat_eta_del2             =   1.9057744412568E-01
(PID.TID 0000.0001) %MON dynstat_uvel_max             =   6.4564987905769E-04
(PID.TID 0000.0001) %MON dynstat_uvel_min             =  -7.6974307611977E-04
(PID.TID 0000.0001) %MON dynstat_uvel_mean            =   2.2731387633268E-06
(PID.TID 0000.0001) %MON dynstat_uvel_sd              =   3.0936752658381E-05
(PID.TID 0000.0001) %MON dynstat_uvel_del2            =   1.5636115363544E-07
(PID.TID 0000.0001) %MON dynstat_vvel_max             =   1.1001993179889E-03
(PID.TID 0000.0001) %MON dynstat_vvel_min             =  -5.2660337388044E-04
(PID.TID 0000.0001) %MON dynstat_vvel_mean            =   1.6788613852633E-04
(PID.TID 0000.0001) %MON dynstat_vvel_sd              =   7.9928070070016E-05
(PID.TID 0000.0001) %MON dynstat_vvel_del2            =   3.2467872425159E-07
(PID.TID 0000.0001) %MON dynstat_wvel_max             =   2.3257538395643E-04
(PID.TID 0000.0001) %MON dynstat_wvel_min             =  -3.0892628892805E-04
(PID.TID 0000.0001) %MON dynstat_wvel_mean            =  -3.9318180756408E-07
(PID.TID 0000.0001) %MON dynstat_wvel_sd              =   2.9595424072353E-05
(PID.TID 0000.0001) %MON dynstat_wvel_del2            =   1.6089629907155E-07
(PID.TID 0000.0001) %MON dynstat_theta_max            =   1.2000000000000E+00
(PID.TID 0000.0001) %MON dynstat_theta_min            =  -1.0000000000000E+00
(PID.TID 0000.0001) %MON dynstat_theta_mean           =   5.6549461226343E-01
(PID.TID 0000.0001) %MON dynstat_theta_sd             =   8.4906625497315E-01
(PID.TID 0000.0001) %MON dynstat_theta_del2           =   3.5619252042667E-06
(PID.TID 0000.0001) %MON dynstat_salt_max             =   3.4700000000000E+01
(PID.TID 0000.0001) %MON dynstat_salt_min             =   3.4000000000000E+01
(PID.TID 0000.0001) %MON dynstat_salt_mean            =   3.4498111062446E+01
(PID.TID 0000.0001) %MON dynstat_salt_sd              =   2.7015756299255E-01
(PID.TID 0000.0001) %MON dynstat_salt_del2            =   1.1330692289562E-06
(PID.TID 0000.0001) %MON advcfl_uvel_max              =   7.6974307611977E-05
(PID.TID 0000.0001) %MON advcfl_vvel_max              =   1.1001993179889E-04
(PID.TID 0000.0001) %MON advcfl_wvel_max              =   1.5446314446403E-03
(PID.TID 0000.0001) %MON advcfl_W_hf_max              =   1.5446314446403E-03
(PID.TID 0000.0001) %MON pe_b_mean                    =  -6.8399077850187E-01
(PID.TID 0000.0001) %MON ke_max                       =   5.1230160599661E-07
(PID.TID 0000.0001) %MON ke_mean                      =   1.7623861554000E-08
(PID.TID 0000.0001) %MON ke_vol                       =   4.6182799236986E+12
(PID.TID 0000.0001) // =======================================================
(PID.TID 0000.0001) // End MONITOR dynamic field statistics
(PID.TID 0000.0001) // =======================================================
(PID.TID 0000.0001) // =======================================================
(PID.TID 0000.0001) // Begin OBCS MONITOR field statistics
(PID.TID 0000.0001) // =======================================================
(PID.TID 0000.0001) %MON obc_N_vVel_max               =   1.9421945555338E-04
(PID.TID 0000.0001) %MON obc_N_vVel_min               =   1.9421945555337E-04
(PID.TID 0000.0001) %MON obc_N_vVel_mean              =   1.9421945555337E-04
(PID.TID 0000.0001) %MON obc_N_vVel_sd                =   6.2431362682148E-11
(PID.TID 0000.0001) %MON obc_N_vVel_Int               =   1.2818484066522E+04
(PID.TID 0000.0001) // =======================================================
(PID.TID 0000.0001) // End OBCS MONITOR field statistics
(PID.TID 0000.0001) // =======================================================
 cg2d: Sum(rhs),rhsMax =   3.01836584929848E+00  4.53054279499918E+02
(PID.TID 0000.0001)      cg2d_init_res =   4.36128760509288E-06
(PID.TID 0000.0001)      cg2d_iters(min,last) =      -1      86
(PID.TID 0000.0001)      cg2d_last_res =   7.83784878957433E-12
(PID.TID 0000.0001) // =======================================================
(PID.TID 0000.0001) // Begin MONITOR dynamic field statistics
(PID.TID 0000.0001) // =======================================================
(PID.TID 0000.0001) %MON time_tsnumber                =                    53
(PID.TID 0000.0001) %MON time_secondsf                =   5.3000000000000E+03
(PID.TID 0000.0001) %MON dynstat_eta_max              =   5.7750088070550E+00
(PID.TID 0000.0001) %MON dynstat_eta_min              =  -1.4206154684347E+01
(PID.TID 0000.0001) %MON dynstat_eta_mean             =  -2.5323769724465E+00
(PID.TID 0000.0001) %MON dynstat_eta_sd               =   4.9438583575354E+00
(PID.TID 0000.0001) %MON dynstat_eta_del2             =   1.9057744164579E-01
(PID.TID 0000.0001) %MON dynstat_uvel_max             =   6.7453386808936E-04
(PID.TID 0000.0001) %MON dynstat_uvel_min             =  -8.0014147140517E-04
(PID.TID 0000.0001) %MON dynstat_uvel_mean            =   2.2949629351544E-06
(PID.TID 0000.0001) %MON dynstat_uvel_sd              =   3.1783223584092E-05
(PID.TID 0000.0001) %MON dynstat_uvel_del2            =   1.6413084839348E-07
(PID.TID 0000.0001) %MON dynstat_vvel_max             =   1.0677610391596E-03
(PID.TID 0000.0001) %MON dynstat_vvel_min             =  -5.8025638407333E-04
(PID.TID 0000.0001) %MON dynstat_vvel_mean            =   1.1704844605870E-04
(PID.TID 0000.0001) %MON dynstat_vvel_sd              =   7.7588393270670E-05
(PID.TID 0000.0001) %MON dynstat_vvel_del2            =   3.3326632826035E-07
(PID.TID 0000.0001) %MON dynstat_wvel_max             =   2.6933178760116E-04
(PID.TID 0000.0001) %MON dynstat_wvel_min             =  -2.9917909277213E-04
(PID.TID 0000.0001) %MON dynstat_wvel_mean            =  -4.0841742101640E-07
(PID.TID 0000.0001) %MON dynstat_wvel_sd              =   3.0505462273753E-05
(PID.TID 0000.0001) %MON dynstat_wvel_del2            =   1.7179603819556E-07
(PID.TID 0000.0001) %MON dynstat_theta_max            =   1.2000000000000E+00
(PID.TID 0000.0001) %MON dynstat_theta_min            =  -1.0000000000000E+00
(PID.TID 0000.0001) %MON dynstat_theta_mean           =   5.6549448780432E-01
(PID.TID 0000.0001) %MON dynstat_theta_sd             =   8.4906619064085E-01
(PID.TID 0000.0001) %MON dynstat_theta_del2           =   3.5377155661902E-06
(PID.TID 0000.0001) %MON dynstat_salt_max             =   3.4700000000000E+01
(PID.TID 0000.0001) %MON dynstat_salt_min             =   3.4000000000000E+01
(PID.TID 0000.0001) %MON dynstat_salt_mean            =   3.4498111007037E+01
(PID.TID 0000.0001) %MON dynstat_salt_sd              =   2.7015754418300E-01
(PID.TID 0000.0001) %MON dynstat_salt_del2            =   1.1252516142026E-06
(PID.TID 0000.0001) %MON advcfl_uvel_max              =   8.0014147140517E-05
(PID.TID 0000.0001) %MON advcfl_vvel_max              =   1.0677610391596E-04
(PID.TID 0000.0001) %MON advcfl_wvel_max              =   1.4958954638606E-03
(PID.TID 0000.0001) %MON advcfl_W_hf_max              =   1.4958954638606E-03
(PID.TID 0000.0001) %MON pe_b_mean                    =  -6.8401257852281E-01
(PID.TID 0000.0001) %MON ke_max                       =   5.2826241343774E-07
(PID.TID 0000.0001) %MON ke_mean                      =   1.0278824199705E-08
(PID.TID 0000.0001) %MON ke_vol                       =   4.6182786525611E+12
(PID.TID 0000.0001) // =======================================================
(PID.TID 0000.0001) // End MONITOR dynamic field statistics
(PID.TID 0000.0001) // =======================================================
(PID.TID 0000.0001) // =======================================================
(PID.TID 0000.0001) // Begin OBCS MONITOR field statistics
(PID.TID 0000.0001) // =======================================================
(PID.TID 0000.0001) %MON obc_N_vVel_max               =   1.4886185345478E-04
(PID.TID 0000.0001) %MON obc_N_vVel_min               =   1.4886185345478E-04
(PID.TID 0000.0001) %MON obc_N_vVel_mean              =   1.4886185345478E-04
(PID.TID 0000.0001) %MON obc_N_vVel_sd                =   2.3436039058152E-11
(PID.TID 0000.0001) %MON obc_N_vVel_Int               =   9.8248823280154E+03
(PID.TID 0000.0001) // =======================================================
(PID.TID 0000.0001) // End OBCS MONITOR field statistics
(PID.TID 0000.0001) // =======================================================
 cg2d: Sum(rhs),rhsMax =   3.01849994554930E+00  4.53054160577587E+02
(PID.TID 0000.0001)      cg2d_init_res =   4.11718326517501E-06
(PID.TID 0000.0001)      cg2d_iters(min,last) =      -1      85
(PID.TID 0000.0001)      cg2d_last_res =   7.52922159319702E-12
(PID.TID 0000.0001) // =======================================================
(PID.TID 0000.0001) // Begin MONITOR dynamic field statistics
(PID.TID 0000.0001) // =======================================================
(PID.TID 0000.0001) %MON time_tsnumber                =                    54
(PID.TID 0000.0001) %MON time_secondsf                =   5.4000000000000E+03
(PID.TID 0000.0001) %MON dynstat_eta_max              =   5.7749157491831E+00
(PID.TID 0000.0001) %MON dynstat_eta_min              =  -1.4206273026558E+01
(PID.TID 0000.0001) %MON dynstat_eta_mean             =  -2.5324888130265E+00
(PID.TID 0000.0001) %MON dynstat_eta_sd               =   4.9438520394017E+00
(PID.TID 0000.0001) %MON dynstat_eta_del2             =   1.9057743947659E-01
(PID.TID 0000.0001) %MON dynstat_uvel_max             =   7.0222416159638E-04
(PID.TID 0000.0001) %MON dynstat_uvel_min             =  -8.2937449429465E-04
(PID.TID 0000.0001) %MON dynstat_uvel_mean            =   2.2571412629242E-06
(PID.TID 0000.0001) %MON dynstat_uvel_sd              =   3.2604492613628E-05
(PID.TID 0000.0001) %MON dynstat_uvel_del2            =   1.7170626428665E-07
(PID.TID 0000.0001) %MON dynstat_vvel_max             =   1.0336294247111E-03
(PID.TID 0000.0001) %MON dynstat_vvel_min             =  -6.3487249976912E-04
(PID.TID 0000.0001) %MON dynstat_vvel_mean            =   6.6386763719971E-05
(PID.TID 0000.0001) %MON dynstat_vvel_sd              =   7.6799285274457E-05
(PID.TID 0000.0001) %MON dynstat_vvel_del2            =   3.4220502103973E-07
(PID.TID 0000.0001) %MON dynstat_wvel_max             =   2.9903451373764E-04
(PID.TID 0000.0001) %MON dynstat_wvel_min             =  -2.8317231620625E-04
(PID.TID 0000.0001) %MON dynstat_wvel_mean            =  -4.0976344715001E-07
(PID.TID 0000.0001) %MON dynstat_wvel_sd              =   3.1655930535080E-05
(PID.TID 0000.0001) %MON dynstat_wvel_del2            =   1.8315867102027E-07
(PID.TID 0000.0001) %MON dynstat_theta_max            =   1.2000000000000E+00
(PID.TID 0000.0001) %MON dynstat_theta_min            =  -1.0000000000000E+00
(PID.TID 0000.0001) %MON dynstat_theta_mean           =   5.6549434461757E-01
(PID.TID 0000.0001) %MON dynstat_theta_sd             =   8.4906613542339E-01
(PID.TID 0000.0001) %MON dynstat_theta_del2           =   3.5128868209172E-06
(PID.TID 0000.0001) %MON dynstat_salt_max             =   3.4700000000000E+01
(PID.TID 0000.0001) %MON dynstat_salt_min             =   3.4000000000000E+01
(PID.TID 0000.0001) %MON dynstat_salt_mean            =   3.4498110945668E+01
(PID.TID 0000.0001) %MON dynstat_salt_sd              =   2.7015752824004E-01
(PID.TID 0000.0001) %MON dynstat_salt_del2            =   1.1172337430858E-06
(PID.TID 0000.0001) %MON advcfl_uvel_max              =   8.2937449429465E-05
(PID.TID 0000.0001) %MON advcfl_vvel_max              =   1.0336294247111E-04
(PID.TID 0000.0001) %MON advcfl_wvel_max              =   1.4951725686882E-03
(PID.TID 0000.0001) %MON advcfl_W_hf_max              =   1.4951725686882E-03
(PID.TID 0000.0001) %MON pe_b_mean                    =  -6.8402367136631E-01
(PID.TID 0000.0001) %MON ke_max                       =   5.4732963069520E-07
(PID.TID 0000.0001) %MON ke_mean                      =   5.6391540320767E-09
(PID.TID 0000.0001) %MON ke_vol                       =   4.6182776807837E+12
(PID.TID 0000.0001) // =======================================================
(PID.TID 0000.0001) // End MONITOR dynamic field statistics
(PID.TID 0000.0001) // =======================================================
(PID.TID 0000.0001) // =======================================================
(PID.TID 0000.0001) // Begin OBCS MONITOR field statistics
(PID.TID 0000.0001) // =======================================================
(PID.TID 0000.0001) %MON obc_N_vVel_max               =   1.0227936775700E-04
(PID.TID 0000.0001) %MON obc_N_vVel_min               =   1.0227936775700E-04
(PID.TID 0000.0001) %MON obc_N_vVel_mean              =   1.0227936775700E-04
(PID.TID 0000.0001) %MON obc_N_vVel_sd                =  -3.1598299399526E-22
(PID.TID 0000.0001) %MON obc_N_vVel_Int               =   6.7504382719620E+03
(PID.TID 0000.0001) // =======================================================
(PID.TID 0000.0001) // End OBCS MONITOR field statistics
(PID.TID 0000.0001) // =======================================================
 cg2d: Sum(rhs),rhsMax =   3.01857249031160E+00  4.53054071866562E+02
(PID.TID 0000.0001)      cg2d_init_res =   4.19459751877033E-06
(PID.TID 0000.0001)      cg2d_iters(min,last) =      -1      84
(PID.TID 0000.0001)      cg2d_last_res =   9.23369954809268E-12
(PID.TID 0000.0001) // =======================================================
(PID.TID 0000.0001) // Begin MONITOR dynamic field statistics
(PID.TID 0000.0001) // =======================================================
(PID.TID 0000.0001) %MON time_tsnumber                =                    55
(PID.TID 0000.0001) %MON time_secondsf                =   5.5000000000000E+03
(PID.TID 0000.0001) %MON dynstat_eta_max              =   5.7749066442604E+00
(PID.TID 0000.0001) %MON dynstat_eta_min              =  -1.4206307549527E+01
(PID.TID 0000.0001) %MON dynstat_eta_mean             =  -2.5325491814075E+00
(PID.TID 0000.0001) %MON dynstat_eta_sd               =   4.9438300837758E+00
(PID.TID 0000.0001) %MON dynstat_eta_del2             =   1.9057743761010E-01
(PID.TID 0000.0001) %MON dynstat_uvel_max             =   7.2878384459685E-04
(PID.TID 0000.0001) %MON dynstat_uvel_min             =  -8.5748138647190E-04
(PID.TID 0000.0001) %MON dynstat_uvel_mean            =   2.1665755769377E-06
(PID.TID 0000.0001) %MON dynstat_uvel_sd              =   3.3400685653902E-05
(PID.TID 0000.0001) %MON dynstat_uvel_del2            =   1.7909602843496E-07
(PID.TID 0000.0001) %MON dynstat_vvel_max             =   9.9979396954808E-04
(PID.TID 0000.0001) %MON dynstat_vvel_min             =  -7.3164812034410E-04
(PID.TID 0000.0001) %MON dynstat_vvel_mean            =   1.7388497134095E-05
(PID.TID 0000.0001) %MON dynstat_vvel_sd              =   7.7407274621415E-05
(PID.TID 0000.0001) %MON dynstat_vvel_del2            =   3.5046653298181E-07
(PID.TID 0000.0001) %MON dynstat_wvel_max             =   3.2103045476313E-04
(PID.TID 0000.0001) %MON dynstat_wvel_min             =  -2.6115606573840E-04
(PID.TID 0000.0001) %MON dynstat_wvel_mean            =  -3.9833849876874E-07
(PID.TID 0000.0001) %MON dynstat_wvel_sd              =   3.2858317922699E-05
(PID.TID 0000.0001) %MON dynstat_wvel_del2            =   1.9346858460857E-07
(PID.TID 0000.0001) %MON dynstat_theta_max            =   1.2000000000000E+00
(PID.TID 0000.0001) %MON dynstat_theta_min            =  -1.0000000000000E+00
(PID.TID 0000.0001) %MON dynstat_theta_mean           =   5.6549418219999E-01
(PID.TID 0000.0001) %MON dynstat_theta_sd             =   8.4906608881814E-01
(PID.TID 0000.0001) %MON dynstat_theta_del2           =   3.4880048533562E-06
(PID.TID 0000.0001) %MON dynstat_salt_max             =   3.4700000000000E+01
(PID.TID 0000.0001) %MON dynstat_salt_min             =   3.4000000000000E+01
(PID.TID 0000.0001) %MON dynstat_salt_mean            =   3.4498110878181E+01
(PID.TID 0000.0001) %MON dynstat_salt_sd              =   2.7015751500592E-01
(PID.TID 0000.0001) %MON dynstat_salt_del2            =   1.1091963005669E-06
(PID.TID 0000.0001) %MON advcfl_uvel_max              =   8.5748138647190E-05
(PID.TID 0000.0001) %MON advcfl_vvel_max              =   9.9979396954808E-05
(PID.TID 0000.0001) %MON advcfl_wvel_max              =   1.6051522738156E-03
(PID.TID 0000.0001) %MON advcfl_W_hf_max              =   1.6051522738156E-03
(PID.TID 0000.0001) %MON pe_b_mean                    =  -6.8402448583487E-01
(PID.TID 0000.0001) %MON ke_max                       =   5.6973433643102E-07
(PID.TID 0000.0001) %MON ke_mean                      =   3.6854525125678E-09
(PID.TID 0000.0001) %MON ke_vol                       =   4.6182770164506E+12
(PID.TID 0000.0001) // =======================================================
(PID.TID 0000.0001) // End MONITOR dynamic field statistics
(PID.TID 0000.0001) // =======================================================
(PID.TID 0000.0001) // =======================================================
(PID.TID 0000.0001) // Begin OBCS MONITOR field statistics
(PID.TID 0000.0001) // =======================================================
(PID.TID 0000.0001) %MON obc_N_vVel_max               =   5.5954382285960E-05
(PID.TID 0000.0001) %MON obc_N_vVel_min               =   5.5954382285959E-05
(PID.TID 0000.0001) %MON obc_N_vVel_mean              =   5.5954382285960E-05
(PID.TID 0000.0001) %MON obc_N_vVel_sd                =  -7.2378303598390E-23
(PID.TID 0000.0001) %MON obc_N_vVel_Int               =   3.6929892308734E+03
(PID.TID 0000.0001) // =======================================================
(PID.TID 0000.0001) // End OBCS MONITOR field statistics
(PID.TID 0000.0001) // =======================================================
 cg2d: Sum(rhs),rhsMax =   3.01858564435773E+00  4.53054013967544E+02
(PID.TID 0000.0001)      cg2d_init_res =   4.50646449697628E-06
(PID.TID 0000.0001)      cg2d_iters(min,last) =      -1      85
(PID.TID 0000.0001)      cg2d_last_res =   9.04397046068153E-12
(PID.TID 0000.0001) // =======================================================
(PID.TID 0000.0001) // Begin MONITOR dynamic field statistics
(PID.TID 0000.0001) // =======================================================
(PID.TID 0000.0001) %MON time_tsnumber                =                    56
(PID.TID 0000.0001) %MON time_secondsf                =   5.6000000000000E+03
(PID.TID 0000.0001) %MON dynstat_eta_max              =   5.7749759205837E+00
(PID.TID 0000.0001) %MON dynstat_eta_min              =  -1.4206263241643E+01
(PID.TID 0000.0001) %MON dynstat_eta_mean             =  -2.5325598938538E+00
(PID.TID 0000.0001) %MON dynstat_eta_sd               =   4.9437942566962E+00
(PID.TID 0000.0001) %MON dynstat_eta_del2             =   1.9057743603486E-01
(PID.TID 0000.0001) %MON dynstat_uvel_max             =   7.5427903480829E-04
(PID.TID 0000.0001) %MON dynstat_uvel_min             =  -8.8450582005706E-04
(PID.TID 0000.0001) %MON dynstat_uvel_mean            =   2.0300015258357E-06
(PID.TID 0000.0001) %MON dynstat_uvel_sd              =   3.4171858992714E-05
(PID.TID 0000.0001) %MON dynstat_uvel_del2            =   1.8630901396728E-07
(PID.TID 0000.0001) %MON dynstat_vvel_max             =   9.9142132850805E-04
(PID.TID 0000.0001) %MON dynstat_vvel_min             =  -8.2295832217216E-04
(PID.TID 0000.0001) %MON dynstat_vvel_mean            =  -2.8613793567863E-05
(PID.TID 0000.0001) %MON dynstat_vvel_sd              =   7.9053997205951E-05
(PID.TID 0000.0001) %MON dynstat_vvel_del2            =   3.5728777971540E-07
(PID.TID 0000.0001) %MON dynstat_wvel_max             =   3.3505721509773E-04
(PID.TID 0000.0001) %MON dynstat_wvel_min             =  -2.3356028045712E-04
(PID.TID 0000.0001) %MON dynstat_wvel_mean            =  -3.7564006562674E-07
(PID.TID 0000.0001) %MON dynstat_wvel_sd              =   3.3949983290410E-05
(PID.TID 0000.0001) %MON dynstat_wvel_del2            =   2.0165263872983E-07
(PID.TID 0000.0001) %MON dynstat_theta_max            =   1.2000000000000E+00
(PID.TID 0000.0001) %MON dynstat_theta_min            =  -1.0000000000000E+00
(PID.TID 0000.0001) %MON dynstat_theta_mean           =   5.6549400063933E-01
(PID.TID 0000.0001) %MON dynstat_theta_sd             =   8.4906605046601E-01
(PID.TID 0000.0001) %MON dynstat_theta_del2           =   3.4635840330900E-06
(PID.TID 0000.0001) %MON dynstat_salt_max             =   3.4700000000000E+01
(PID.TID 0000.0001) %MON dynstat_salt_min             =   3.4000000000000E+01
(PID.TID 0000.0001) %MON dynstat_salt_mean            =   3.4498110804603E+01
(PID.TID 0000.0001) %MON dynstat_salt_sd              =   2.7015750437465E-01
(PID.TID 0000.0001) %MON dynstat_salt_del2            =   1.1013034749819E-06
(PID.TID 0000.0001) %MON advcfl_uvel_max              =   8.8450582005706E-05
(PID.TID 0000.0001) %MON advcfl_vvel_max              =   9.9142132850805E-05
(PID.TID 0000.0001) %MON advcfl_wvel_max              =   1.6752860754887E-03
(PID.TID 0000.0001) %MON advcfl_W_hf_max              =   1.6752860754887E-03
(PID.TID 0000.0001) %MON pe_b_mean                    =  -6.8401572239911E-01
(PID.TID 0000.0001) %MON ke_max                       =   6.1630328678270E-07
(PID.TID 0000.0001) %MON ke_mean                      =   4.1084751803955E-09
(PID.TID 0000.0001) %MON ke_vol                       =   4.6182766578624E+12
(PID.TID 0000.0001) // =======================================================
(PID.TID 0000.0001) // End MONITOR dynamic field statistics
(PID.TID 0000.0001) // =======================================================
(PID.TID 0000.0001) // =======================================================
(PID.TID 0000.0001) // Begin OBCS MONITOR field statistics
(PID.TID 0000.0001) // =======================================================
(PID.TID 0000.0001) %MON obc_N_vVel_max               =   1.1264034772362E-05
(PID.TID 0000.0001) %MON obc_N_vVel_min               =   1.1264034772362E-05
(PID.TID 0000.0001) %MON obc_N_vVel_mean              =   1.1264034772362E-05
(PID.TID 0000.0001) %MON obc_N_vVel_sd                =   2.3792892462161E-12
(PID.TID 0000.0001) %MON obc_N_vVel_Int               =   7.4342629497590E+02
(PID.TID 0000.0001) // =======================================================
(PID.TID 0000.0001) // End OBCS MONITOR field statistics
(PID.TID 0000.0001) // =======================================================
 cg2d: Sum(rhs),rhsMax =   3.01854320526326E+00  4.53053986464539E+02
(PID.TID 0000.0001)      cg2d_init_res =   4.92896507794558E-06
(PID.TID 0000.0001)      cg2d_iters(min,last) =      -1      86
(PID.TID 0000.0001)      cg2d_last_res =   8.14592366674658E-12
(PID.TID 0000.0001) // =======================================================
(PID.TID 0000.0001) // Begin MONITOR dynamic field statistics
(PID.TID 0000.0001) // =======================================================
(PID.TID 0000.0001) %MON time_tsnumber                =                    57
(PID.TID 0000.0001) %MON time_secondsf                =   5.7000000000000E+03
(PID.TID 0000.0001) %MON dynstat_eta_max              =   5.7751159487127E+00
(PID.TID 0000.0001) %MON dynstat_eta_min              =  -1.4206147205079E+01
(PID.TID 0000.0001) %MON dynstat_eta_mean             =  -2.5325241341851E+00
(PID.TID 0000.0001) %MON dynstat_eta_sd               =   4.9437466132202E+00
(PID.TID 0000.0001) %MON dynstat_eta_del2             =   1.9057743472808E-01
(PID.TID 0000.0001) %MON dynstat_uvel_max             =   7.7877749293975E-04
(PID.TID 0000.0001) %MON dynstat_uvel_min             =  -9.1049515668828E-04
(PID.TID 0000.0001) %MON dynstat_uvel_mean            =   1.8538834451218E-06
(PID.TID 0000.0001) %MON dynstat_uvel_sd              =   3.4918285532394E-05
(PID.TID 0000.0001) %MON dynstat_uvel_del2            =   1.9335392093556E-07
(PID.TID 0000.0001) %MON dynstat_vvel_max             =   1.0114714666614E-03
(PID.TID 0000.0001) %MON dynstat_vvel_min             =  -9.0732126332593E-04
(PID.TID 0000.0001) %MON dynstat_vvel_mean            =  -7.0472710049961E-05
(PID.TID 0000.0001) %MON dynstat_vvel_sd              =   8.1283739043832E-05
(PID.TID 0000.0001) %MON dynstat_vvel_del2            =   3.6221910562179E-07
(PID.TID 0000.0001) %MON dynstat_wvel_max             =   3.4075384630920E-04
(PID.TID 0000.0001) %MON dynstat_wvel_min             =  -2.0131567588237E-04
(PID.TID 0000.0001) %MON dynstat_wvel_mean            =  -3.4340887430318E-07
(PID.TID 0000.0001) %MON dynstat_wvel_sd              =   3.4807597747124E-05
(PID.TID 0000.0001) %MON dynstat_wvel_del2            =   2.0703761995826E-07
(PID.TID 0000.0001) %MON dynstat_theta_max            =   1.2000000000000E+00
(PID.TID 0000.0001) %MON dynstat_theta_min            =  -1.0000000000000E+00
(PID.TID 0000.0001) %MON dynstat_theta_mean           =   5.6549380059689E-01
(PID.TID 0000.0001) %MON dynstat_theta_sd             =   8.4906601967925E-01
(PID.TID 0000.0001) %MON dynstat_theta_del2           =   3.4400049406570E-06
(PID.TID 0000.0001) %MON dynstat_salt_max             =   3.4700000000000E+01
(PID.TID 0000.0001) %MON dynstat_salt_min             =   3.4000000000000E+01
(PID.TID 0000.0001) %MON dynstat_salt_mean            =   3.4498110725144E+01
(PID.TID 0000.0001) %MON dynstat_salt_sd              =   2.7015749613872E-01
(PID.TID 0000.0001) %MON dynstat_salt_del2            =   1.0936793274085E-06
(PID.TID 0000.0001) %MON advcfl_uvel_max              =   9.1049515668828E-05
(PID.TID 0000.0001) %MON advcfl_vvel_max              =   1.0114714666614E-04
(PID.TID 0000.0001) %MON advcfl_wvel_max              =   1.7037692315460E-03
(PID.TID 0000.0001) %MON advcfl_W_hf_max              =   1.7037692315460E-03
(PID.TID 0000.0001) %MON pe_b_mean                    =  -6.8399831273266E-01
(PID.TID 0000.0001) %MON ke_max                       =   6.7924562124442E-07
(PID.TID 0000.0001) %MON ke_mean                      =   6.3830643351503E-09
(PID.TID 0000.0001) %MON ke_vol                       =   4.6182765942305E+12
(PID.TID 0000.0001) // =======================================================
(PID.TID 0000.0001) // End MONITOR dynamic field statistics
(PID.TID 0000.0001) // =======================================================
(PID.TID 0000.0001) // =======================================================
(PID.TID 0000.0001) // Begin OBCS MONITOR field statistics
(PID.TID 0000.0001) // =======================================================
(PID.TID 0000.0001) %MON obc_N_vVel_max               =  -3.0560875164570E-05
(PID.TID 0000.0001) %MON obc_N_vVel_min               =  -3.0560875164571E-05
(PID.TID 0000.0001) %MON obc_N_vVel_mean              =  -3.0560875164571E-05
(PID.TID 0000.0001) %MON obc_N_vVel_sd                =  -2.3988237764038E-23
(PID.TID 0000.0001) %MON obc_N_vVel_Int               =  -2.0170177608617E+03
(PID.TID 0000.0001) // =======================================================
(PID.TID 0000.0001) // End OBCS MONITOR field statistics
(PID.TID 0000.0001) // =======================================================
 cg2d: Sum(rhs),rhsMax =   3.01845037052775E+00  4.53053988002887E+02
(PID.TID 0000.0001)      cg2d_init_res =   5.35851620702899E-06
(PID.TID 0000.0001)      cg2d_iters(min,last) =      -1      86
(PID.TID 0000.0001)      cg2d_last_res =   9.16607540016330E-12
(PID.TID 0000.0001) // =======================================================
(PID.TID 0000.0001) // Begin MONITOR dynamic field statistics
(PID.TID 0000.0001) // =======================================================
(PID.TID 0000.0001) %MON time_tsnumber                =                    58
(PID.TID 0000.0001) %MON time_secondsf                =   5.8000000000000E+03
(PID.TID 0000.0001) %MON dynstat_eta_max              =   5.7753174581027E+00
(PID.TID 0000.0001) %MON dynstat_eta_min              =  -1.4205968233004E+01
(PID.TID 0000.0001) %MON dynstat_eta_mean             =  -2.5324462554748E+00
(PID.TID 0000.0001) %MON dynstat_eta_sd               =   4.9436894098845E+00
(PID.TID 0000.0001) %MON dynstat_eta_del2             =   1.9057743366384E-01
(PID.TID 0000.0001) %MON dynstat_uvel_max             =   8.0234742816288E-04
(PID.TID 0000.0001) %MON dynstat_uvel_min             =  -9.3549944135773E-04
(PID.TID 0000.0001) %MON dynstat_uvel_mean            =   1.6443936893647E-06
(PID.TID 0000.0001) %MON dynstat_uvel_sd              =   3.5640686453264E-05
(PID.TID 0000.0001) %MON dynstat_uvel_del2            =   2.0023898992879E-07
(PID.TID 0000.0001) %MON dynstat_vvel_max             =   1.0331976186428E-03
(PID.TID 0000.0001) %MON dynstat_vvel_min             =  -9.8355139461592E-04
(PID.TID 0000.0001) %MON dynstat_vvel_mean            =  -1.0724792814414E-04
(PID.TID 0000.0001) %MON dynstat_vvel_sd              =   8.3649236831058E-05
(PID.TID 0000.0001) %MON dynstat_vvel_del2            =   3.6513272923318E-07
(PID.TID 0000.0001) %MON dynstat_wvel_max             =   3.3872115251807E-04
(PID.TID 0000.0001) %MON dynstat_wvel_min             =  -2.1365967382429E-04
(PID.TID 0000.0001) %MON dynstat_wvel_mean            =  -3.0350661947689E-07
(PID.TID 0000.0001) %MON dynstat_wvel_sd              =   3.5350566936568E-05
(PID.TID 0000.0001) %MON dynstat_wvel_del2            =   2.0929452360001E-07
(PID.TID 0000.0001) %MON dynstat_theta_max            =   1.2000000000000E+00
(PID.TID 0000.0001) %MON dynstat_theta_min            =  -1.0000000000000E+00
(PID.TID 0000.0001) %MON dynstat_theta_mean           =   5.6549358326533E-01
(PID.TID 0000.0001) %MON dynstat_theta_sd             =   8.4906599556781E-01
(PID.TID 0000.0001) %MON dynstat_theta_del2           =   3.4175531982000E-06
(PID.TID 0000.0001) %MON dynstat_salt_max             =   3.4700000000000E+01
(PID.TID 0000.0001) %MON dynstat_salt_min             =   3.4000000000000E+01
(PID.TID 0000.0001) %MON dynstat_salt_mean            =   3.4498110640184E+01
(PID.TID 0000.0001) %MON dynstat_salt_sd              =   2.7015749001990E-01
(PID.TID 0000.0001) %MON dynstat_salt_del2            =   1.0864110721856E-06
(PID.TID 0000.0001) %MON advcfl_uvel_max              =   9.3549944135773E-05
(PID.TID 0000.0001) %MON advcfl_vvel_max              =   1.0331976186428E-04
(PID.TID 0000.0001) %MON advcfl_wvel_max              =   1.6936057625904E-03
(PID.TID 0000.0001) %MON advcfl_W_hf_max              =   1.6936057625904E-03
(PID.TID 0000.0001) %MON pe_b_mean                    =  -6.8397337546579E-01
(PID.TID 0000.0001) %MON ke_max                       =   7.4442492213267E-07
(PID.TID 0000.0001) %MON ke_mean                      =   9.8571163210167E-09
(PID.TID 0000.0001) %MON ke_vol                       =   4.6182768066429E+12
(PID.TID 0000.0001) // =======================================================
(PID.TID 0000.0001) // End MONITOR dynamic field statistics
(PID.TID 0000.0001) // =======================================================
(PID.TID 0000.0001) // =======================================================
(PID.TID 0000.0001) // Begin OBCS MONITOR field statistics
(PID.TID 0000.0001) // =======================================================
(PID.TID 0000.0001) %MON obc_N_vVel_max               =  -6.8468019103735E-05
(PID.TID 0000.0001) %MON obc_N_vVel_min               =  -6.8468019103737E-05
(PID.TID 0000.0001) %MON obc_N_vVel_mean              =  -6.8468019103737E-05
(PID.TID 0000.0001) %MON obc_N_vVel_sd                =  -1.4310224597167E-22
(PID.TID 0000.0001) %MON obc_N_vVel_Int               =  -4.5188892608466E+03
(PID.TID 0000.0001) // =======================================================
(PID.TID 0000.0001) // End OBCS MONITOR field statistics
(PID.TID 0000.0001) // =======================================================
 cg2d: Sum(rhs),rhsMax =   3.01831347115495E+00  4.53054016397419E+02
(PID.TID 0000.0001)      cg2d_init_res =   5.72688522826340E-06
(PID.TID 0000.0001)      cg2d_iters(min,last) =      -1      86
(PID.TID 0000.0001)      cg2d_last_res =   9.90668371681700E-12
(PID.TID 0000.0001) // =======================================================
(PID.TID 0000.0001) // Begin MONITOR dynamic field statistics
(PID.TID 0000.0001) // =======================================================
(PID.TID 0000.0001) %MON time_tsnumber                =                    59
(PID.TID 0000.0001) %MON time_secondsf                =   5.9000000000000E+03
(PID.TID 0000.0001) %MON dynstat_eta_max              =   5.7755699755763E+00
(PID.TID 0000.0001) %MON dynstat_eta_min              =  -1.4205736347210E+01
(PID.TID 0000.0001) %MON dynstat_eta_mean             =  -2.5323315571355E+00
(PID.TID 0000.0001) %MON dynstat_eta_sd               =   4.9436250187413E+00
(PID.TID 0000.0001) %MON dynstat_eta_del2             =   1.9057743281158E-01
(PID.TID 0000.0001) %MON dynstat_uvel_max             =   8.2505639349151E-04
(PID.TID 0000.0001) %MON dynstat_uvel_min             =  -9.5957046614004E-04
(PID.TID 0000.0001) %MON dynstat_uvel_mean            =   1.4074777025749E-06
(PID.TID 0000.0001) %MON dynstat_uvel_sd              =   3.6340358821620E-05
(PID.TID 0000.0001) %MON dynstat_uvel_del2            =   2.0697165015990E-07
(PID.TID 0000.0001) %MON dynstat_vvel_max             =   1.0567498002940E-03
(PID.TID 0000.0001) %MON dynstat_vvel_min             =  -1.0507731736924E-03
(PID.TID 0000.0001) %MON dynstat_vvel_mean            =  -1.3821956723229E-04
(PID.TID 0000.0001) %MON dynstat_vvel_sd              =   8.5780367685507E-05
(PID.TID 0000.0001) %MON dynstat_vvel_del2            =   3.6620416729598E-07
(PID.TID 0000.0001) %MON dynstat_wvel_max             =   3.3170912108916E-04
(PID.TID 0000.0001) %MON dynstat_wvel_min             =  -2.2831634132344E-04
(PID.TID 0000.0001) %MON dynstat_wvel_mean            =  -2.5781591404555E-07
(PID.TID 0000.0001) %MON dynstat_wvel_sd              =   3.5539661408419E-05
(PID.TID 0000.0001) %MON dynstat_wvel_del2            =   2.0839361565613E-07
(PID.TID 0000.0001) %MON dynstat_theta_max            =   1.2000000000000E+00
(PID.TID 0000.0001) %MON dynstat_theta_min            =  -1.0000000000000E+00
(PID.TID 0000.0001) %MON dynstat_theta_mean           =   5.6549335030348E-01
(PID.TID 0000.0001) %MON dynstat_theta_sd             =   8.4906597711831E-01
(PID.TID 0000.0001) %MON dynstat_theta_del2           =   3.3963482188996E-06
(PID.TID 0000.0001) %MON dynstat_salt_max             =   3.4700000000000E+01
(PID.TID 0000.0001) %MON dynstat_salt_min             =   3.4000000000000E+01
(PID.TID 0000.0001) %MON dynstat_salt_mean            =   3.4498110550250E+01
(PID.TID 0000.0001) %MON dynstat_salt_sd              =   2.7015748570103E-01
(PID.TID 0000.0001) %MON dynstat_salt_del2            =   1.0795385718725E-06
(PID.TID 0000.0001) %MON advcfl_uvel_max              =   9.5957046614004E-05
(PID.TID 0000.0001) %MON advcfl_vvel_max              =   1.0567498002940E-04
(PID.TID 0000.0001) %MON advcfl_wvel_max              =   1.6585456054458E-03
(PID.TID 0000.0001) %MON advcfl_W_hf_max              =   1.6585456054458E-03
(PID.TID 0000.0001) %MON pe_b_mean                    =  -6.8394216977235E-01
(PID.TID 0000.0001) %MON ke_max                       =   8.1016692129538E-07
(PID.TID 0000.0001) %MON ke_mean                      =   1.3843005225072E-08
(PID.TID 0000.0001) %MON ke_vol                       =   4.6182772692425E+12
(PID.TID 0000.0001) // =======================================================
(PID.TID 0000.0001) // End MONITOR dynamic field statistics
(PID.TID 0000.0001) // =======================================================
(PID.TID 0000.0001) // =======================================================
(PID.TID 0000.0001) // Begin OBCS MONITOR field statistics
(PID.TID 0000.0001) // =======================================================
(PID.TID 0000.0001) %MON obc_N_vVel_max               =  -1.0160569167976E-04
(PID.TID 0000.0001) %MON obc_N_vVel_min               =  -1.0160569167976E-04
(PID.TID 0000.0001) %MON obc_N_vVel_mean              =  -1.0160569167976E-04
(PID.TID 0000.0001) %MON obc_N_vVel_sd                =  -4.2186211240204E-22
(PID.TID 0000.0001) %MON obc_N_vVel_Int               =  -6.7059756508641E+03
(PID.TID 0000.0001) // =======================================================
(PID.TID 0000.0001) // End OBCS MONITOR field statistics
(PID.TID 0000.0001) // =======================================================
 cg2d: Sum(rhs),rhsMax =   3.01813968917691E+00  4.53054068792802E+02
(PID.TID 0000.0001)      cg2d_init_res =   5.99416455503746E-06
(PID.TID 0000.0001)      cg2d_iters(min,last) =      -1      87
(PID.TID 0000.0001)      cg2d_last_res =   7.51837109709353E-12
(PID.TID 0000.0001) // =======================================================
(PID.TID 0000.0001) // Begin MONITOR dynamic field statistics
(PID.TID 0000.0001) // =======================================================
(PID.TID 0000.0001) %MON time_tsnumber                =                    60
(PID.TID 0000.0001) %MON time_secondsf                =   6.0000000000000E+03
(PID.TID 0000.0001) %MON dynstat_eta_max              =   5.7758622706950E+00
(PID.TID 0000.0001) %MON dynstat_eta_min              =  -1.4205462354623E+01
(PID.TID 0000.0001) %MON dynstat_eta_mean             =  -2.5321860488271E+00
(PID.TID 0000.0001) %MON dynstat_eta_sd               =   4.9435558458871E+00
(PID.TID 0000.0001) %MON dynstat_eta_del2             =   1.9057743213581E-01
(PID.TID 0000.0001) %MON dynstat_uvel_max             =   8.4955552979693E-04
(PID.TID 0000.0001) %MON dynstat_uvel_min             =  -9.8437582959576E-04
(PID.TID 0000.0001) %MON dynstat_uvel_mean            =   1.1489974105024E-06
(PID.TID 0000.0001) %MON dynstat_uvel_sd              =   3.7019217007303E-05
(PID.TID 0000.0001) %MON dynstat_uvel_del2            =   2.1355825426121E-07
(PID.TID 0000.0001) %MON dynstat_vvel_max             =   1.0821353176729E-03
(PID.TID 0000.0001) %MON dynstat_vvel_min             =  -1.1084232079295E-03
(PID.TID 0000.0001) %MON dynstat_vvel_mean            =  -1.6289331090748E-04
(PID.TID 0000.0001) %MON dynstat_vvel_sd              =   8.7413815276868E-05
(PID.TID 0000.0001) %MON dynstat_vvel_del2            =   3.6587244045433E-07
(PID.TID 0000.0001) %MON dynstat_wvel_max             =   3.1669958013667E-04
(PID.TID 0000.0001) %MON dynstat_wvel_min             =  -2.3949242096905E-04
(PID.TID 0000.0001) %MON dynstat_wvel_mean            =  -2.0816870917092E-07
(PID.TID 0000.0001) %MON dynstat_wvel_sd              =   3.5373866821834E-05
(PID.TID 0000.0001) %MON dynstat_wvel_del2            =   2.0457257972216E-07
(PID.TID 0000.0001) %MON dynstat_theta_max            =   1.2000000000000E+00
(PID.TID 0000.0001) %MON dynstat_theta_min            =  -1.0000000000000E+00
(PID.TID 0000.0001) %MON dynstat_theta_mean           =   5.6549310375212E-01
(PID.TID 0000.0001) %MON dynstat_theta_sd             =   8.4906596320892E-01
(PID.TID 0000.0001) %MON dynstat_theta_del2           =   3.3763244579854E-06
(PID.TID 0000.0001) %MON dynstat_salt_max             =   3.4700000000000E+01
(PID.TID 0000.0001) %MON dynstat_salt_min             =   3.4000000000000E+01
(PID.TID 0000.0001) %MON dynstat_salt_mean            =   3.4498110455991E+01
(PID.TID 0000.0001) %MON dynstat_salt_sd              =   2.7015748282792E-01
(PID.TID 0000.0001) %MON dynstat_salt_del2            =   1.0730416941477E-06
(PID.TID 0000.0001) %MON advcfl_uvel_max              =   9.8437582959576E-05
(PID.TID 0000.0001) %MON advcfl_vvel_max              =   1.1084232079295E-04
(PID.TID 0000.0001) %MON advcfl_wvel_max              =   1.5834979006833E-03
(PID.TID 0000.0001) %MON advcfl_W_hf_max              =   1.5834979006833E-03
(PID.TID 0000.0001) %MON pe_b_mean                    =  -6.8390604829757E-01
(PID.TID 0000.0001) %MON ke_max                       =   8.7486769731856E-07
(PID.TID 0000.0001) %MON ke_mean                      =   1.7700348590997E-08
(PID.TID 0000.0001) %MON ke_vol                       =   4.6182779505506E+12
(PID.TID 0000.0001) // =======================================================
(PID.TID 0000.0001) // End MONITOR dynamic field statistics
(PID.TID 0000.0001) // =======================================================
(PID.TID 0000.0001) // =======================================================
(PID.TID 0000.0001) // Begin OBCS MONITOR field statistics
(PID.TID 0000.0001) // =======================================================
(PID.TID 0000.0001) %MON obc_N_vVel_max               =  -1.2933467052719E-04
(PID.TID 0000.0001) %MON obc_N_vVel_min               =  -1.2933467052719E-04
(PID.TID 0000.0001) %MON obc_N_vVel_mean              =  -1.2933467052719E-04
(PID.TID 0000.0001) %MON obc_N_vVel_sd                =  -2.9447629806888E-22
(PID.TID 0000.0001) %MON obc_N_vVel_Int               =  -8.5360882547946E+03
(PID.TID 0000.0001) // =======================================================
(PID.TID 0000.0001) // End OBCS MONITOR field statistics
(PID.TID 0000.0001) // =======================================================
 cg2d: Sum(rhs),rhsMax =   3.01793677194497E+00  4.53054141824545E+02
(PID.TID 0000.0001)      cg2d_init_res =   6.14068108027302E-06
(PID.TID 0000.0001)      cg2d_iters(min,last) =      -1      87
(PID.TID 0000.0001)      cg2d_last_res =   7.63792009907068E-12
(PID.TID 0000.0001) // =======================================================
(PID.TID 0000.0001) // Begin MONITOR dynamic field statistics
(PID.TID 0000.0001) // =======================================================
(PID.TID 0000.0001) %MON time_tsnumber                =                    61
(PID.TID 0000.0001) %MON time_secondsf                =   6.1000000000000E+03
(PID.TID 0000.0001) %MON dynstat_eta_max              =   5.7761827769331E+00
(PID.TID 0000.0001) %MON dynstat_eta_min              =  -1.4205157430491E+01
(PID.TID 0000.0001) %MON dynstat_eta_mean             =  -2.5320162116560E+00
(PID.TID 0000.0001) %MON dynstat_eta_sd               =   4.9434842570804E+00
(PID.TID 0000.0001) %MON dynstat_eta_del2             =   1.9057743160216E-01
(PID.TID 0000.0001) %MON dynstat_uvel_max             =   8.7456263644548E-04
(PID.TID 0000.0001) %MON dynstat_uvel_min             =  -1.0100183822779E-03
(PID.TID 0000.0001) %MON dynstat_uvel_mean            =   8.7492195014428E-07
(PID.TID 0000.0001) %MON dynstat_uvel_sd              =   3.7679779884446E-05
(PID.TID 0000.0001) %MON dynstat_uvel_del2            =   2.2000407360851E-07
(PID.TID 0000.0001) %MON dynstat_vvel_max             =   1.1092358049831E-03
(PID.TID 0000.0001) %MON dynstat_vvel_min             =  -1.1562422187286E-03
(PID.TID 0000.0001) %MON dynstat_vvel_mean            =  -1.8099795239398E-04
(PID.TID 0000.0001) %MON dynstat_vvel_sd              =   8.8397012990556E-05
(PID.TID 0000.0001) %MON dynstat_vvel_del2            =   3.6477904505505E-07
(PID.TID 0000.0001) %MON dynstat_wvel_max             =   2.9425107430756E-04
(PID.TID 0000.0001) %MON dynstat_wvel_min             =  -2.4678497115858E-04
(PID.TID 0000.0001) %MON dynstat_wvel_mean            =  -1.5630014406346E-07
(PID.TID 0000.0001) %MON dynstat_wvel_sd              =   3.4886619140130E-05
(PID.TID 0000.0001) %MON dynstat_wvel_del2            =   1.9831367958909E-07
(PID.TID 0000.0001) %MON dynstat_theta_max            =   1.2000000000000E+00
(PID.TID 0000.0001) %MON dynstat_theta_min            =  -1.0000000000000E+00
(PID.TID 0000.0001) %MON dynstat_theta_mean           =   5.6549284593732E-01
(PID.TID 0000.0001) %MON dynstat_theta_sd             =   8.4906595261654E-01
(PID.TID 0000.0001) %MON dynstat_theta_del2           =   3.3572718999644E-06
(PID.TID 0000.0001) %MON dynstat_salt_max             =   3.4700000000000E+01
(PID.TID 0000.0001) %MON dynstat_salt_min             =   3.4000000000000E+01
(PID.TID 0000.0001) %MON dynstat_salt_mean            =   3.4498110358149E+01
(PID.TID 0000.0001) %MON dynstat_salt_sd              =   2.7015748101144E-01
(PID.TID 0000.0001) %MON dynstat_salt_del2            =   1.0668527254560E-06
(PID.TID 0000.0001) %MON advcfl_uvel_max              =   1.0100183822779E-04
(PID.TID 0000.0001) %MON advcfl_vvel_max              =   1.1562422187286E-04
(PID.TID 0000.0001) %MON advcfl_wvel_max              =   1.4712553715378E-03
(PID.TID 0000.0001) %MON advcfl_W_hf_max              =   1.4712553715378E-03
(PID.TID 0000.0001) %MON pe_b_mean                    =  -6.8386641083155E-01
(PID.TID 0000.0001) %MON ke_max                       =   9.3710127155959E-07
(PID.TID 0000.0001) %MON ke_mean                      =   2.0901671820483E-08
(PID.TID 0000.0001) %MON ke_vol                       =   4.6182788148700E+12
(PID.TID 0000.0001) // =======================================================
(PID.TID 0000.0001) // End MONITOR dynamic field statistics
(PID.TID 0000.0001) // =======================================================
(PID.TID 0000.0001) // =======================================================
(PID.TID 0000.0001) // Begin OBCS MONITOR field statistics
(PID.TID 0000.0001) // =======================================================
(PID.TID 0000.0001) %MON obc_N_vVel_max               =  -1.5123065357845E-04
(PID.TID 0000.0001) %MON obc_N_vVel_min               =  -1.5123065357845E-04
(PID.TID 0000.0001) %MON obc_N_vVel_mean              =  -1.5123065357845E-04
(PID.TID 0000.0001) %MON obc_N_vVel_sd                =  -5.0954325733267E-22
(PID.TID 0000.0001) %MON obc_N_vVel_Int               =  -9.9812231361777E+03
(PID.TID 0000.0001) // =======================================================
(PID.TID 0000.0001) // End OBCS MONITOR field statistics
(PID.TID 0000.0001) // =======================================================
 cg2d: Sum(rhs),rhsMax =   3.01771275403283E+00  4.53054231780136E+02
(PID.TID 0000.0001)      cg2d_init_res =   6.16093948079159E-06
(PID.TID 0000.0001)      cg2d_iters(min,last) =      -1      87
(PID.TID 0000.0001)      cg2d_last_res =   7.45507826870975E-12
(PID.TID 0000.0001) // =======================================================
(PID.TID 0000.0001) // Begin MONITOR dynamic field statistics
(PID.TID 0000.0001) // =======================================================
(PID.TID 0000.0001) %MON time_tsnumber                =                    62
(PID.TID 0000.0001) %MON time_secondsf                =   6.2000000000000E+03
(PID.TID 0000.0001) %MON dynstat_eta_max              =   5.7765199817602E+00
(PID.TID 0000.0001) %MON dynstat_eta_min              =  -1.4204832747451E+01
(PID.TID 0000.0001) %MON dynstat_eta_mean             =  -2.5318287657620E+00
(PID.TID 0000.0001) %MON dynstat_eta_sd               =   4.9434125114773E+00
(PID.TID 0000.0001) %MON dynstat_eta_del2             =   1.9057743117132E-01
(PID.TID 0000.0001) %MON dynstat_uvel_max             =   9.0287000696954E-04
(PID.TID 0000.0001) %MON dynstat_uvel_min             =  -1.0345704084784E-03
(PID.TID 0000.0001) %MON dynstat_uvel_mean            =   5.9152012979871E-07
(PID.TID 0000.0001) %MON dynstat_uvel_sd              =   3.8325086365033E-05
(PID.TID 0000.0001) %MON dynstat_uvel_del2            =   2.2631330679357E-07
(PID.TID 0000.0001) %MON dynstat_vvel_max             =   1.1378282802958E-03
(PID.TID 0000.0001) %MON dynstat_vvel_min             =  -1.1988835720032E-03
(PID.TID 0000.0001) %MON dynstat_vvel_mean            =  -1.9247625623186E-04
(PID.TID 0000.0001) %MON dynstat_vvel_sd              =   8.8679111750252E-05
(PID.TID 0000.0001) %MON dynstat_vvel_del2            =   3.6368362239494E-07
(PID.TID 0000.0001) %MON dynstat_wvel_max             =   2.6661896563996E-04
(PID.TID 0000.0001) %MON dynstat_wvel_min             =  -2.5460851037782E-04
(PID.TID 0000.0001) %MON dynstat_wvel_mean            =  -1.0382350533884E-07
(PID.TID 0000.0001) %MON dynstat_wvel_sd              =   3.4141552296082E-05
(PID.TID 0000.0001) %MON dynstat_wvel_del2            =   1.9032358895813E-07
(PID.TID 0000.0001) %MON dynstat_theta_max            =   1.2000000000000E+00
(PID.TID 0000.0001) %MON dynstat_theta_min            =  -1.0000000000000E+00
(PID.TID 0000.0001) %MON dynstat_theta_mean           =   5.6549257936838E-01
(PID.TID 0000.0001) %MON dynstat_theta_sd             =   8.4906594394199E-01
(PID.TID 0000.0001) %MON dynstat_theta_del2           =   3.3388911945866E-06
(PID.TID 0000.0001) %MON dynstat_salt_max             =   3.4700000000000E+01
(PID.TID 0000.0001) %MON dynstat_salt_min             =   3.4000000000000E+01
(PID.TID 0000.0001) %MON dynstat_salt_mean            =   3.4498110257520E+01
(PID.TID 0000.0001) %MON dynstat_salt_sd              =   2.7015747980755E-01
(PID.TID 0000.0001) %MON dynstat_salt_del2            =   1.0608768878264E-06
(PID.TID 0000.0001) %MON advcfl_uvel_max              =   1.0345704084784E-04
(PID.TID 0000.0001) %MON advcfl_vvel_max              =   1.1988835720032E-04
(PID.TID 0000.0001) %MON advcfl_wvel_max              =   1.3330948281998E-03
(PID.TID 0000.0001) %MON advcfl_W_hf_max              =   1.3330948281998E-03
(PID.TID 0000.0001) %MON pe_b_mean                    =  -6.8382465998172E-01
(PID.TID 0000.0001) %MON ke_max                       =   9.9569705554271E-07
(PID.TID 0000.0001) %MON ke_mean                      =   2.3075836798272E-08
(PID.TID 0000.0001) %MON ke_vol                       =   4.6182798237028E+12
(PID.TID 0000.0001) // =======================================================
(PID.TID 0000.0001) // End MONITOR dynamic field statistics
(PID.TID 0000.0001) // =======================================================
(PID.TID 0000.0001) // =======================================================
(PID.TID 0000.0001) // Begin OBCS MONITOR field statistics
(PID.TID 0000.0001) // =======================================================
(PID.TID 0000.0001) %MON obc_N_vVel_max               =  -1.6707851097244E-04
(PID.TID 0000.0001) %MON obc_N_vVel_min               =  -1.6707851097245E-04
(PID.TID 0000.0001) %MON obc_N_vVel_mean              =  -1.6707851097244E-04
(PID.TID 0000.0001) %MON obc_N_vVel_sd                =   1.6966403660424E-11
(PID.TID 0000.0001) %MON obc_N_vVel_Int               =  -1.1027181724181E+04
(PID.TID 0000.0001) // =======================================================
(PID.TID 0000.0001) // End OBCS MONITOR field statistics
(PID.TID 0000.0001) // =======================================================
 cg2d: Sum(rhs),rhsMax =   3.01747569539938E+00  4.53054334749513E+02
(PID.TID 0000.0001)      cg2d_init_res =   6.06039024282007E-06
(PID.TID 0000.0001)      cg2d_iters(min,last) =      -1      86
(PID.TID 0000.0001)      cg2d_last_res =   8.74553115422684E-12
(PID.TID 0000.0001) // =======================================================
(PID.TID 0000.0001) // Begin MONITOR dynamic field statistics
(PID.TID 0000.0001) // =======================================================
(PID.TID 0000.0001) %MON time_tsnumber                =                    63
(PID.TID 0000.0001) %MON time_secondsf                =   6.3000000000000E+03
(PID.TID 0000.0001) %MON dynstat_eta_max              =   5.7768627686547E+00
(PID.TID 0000.0001) %MON dynstat_eta_min              =  -1.4204499155430E+01
(PID.TID 0000.0001) %MON dynstat_eta_mean             =  -2.5316304514852E+00
(PID.TID 0000.0001) %MON dynstat_eta_sd               =   4.9433427048641E+00
(PID.TID 0000.0001) %MON dynstat_eta_del2             =   1.9057743080591E-01
(PID.TID 0000.0001) %MON dynstat_uvel_max             =   9.3118203436582E-04
(PID.TID 0000.0001) %MON dynstat_uvel_min             =  -1.0580950419339E-03
(PID.TID 0000.0001) %MON dynstat_uvel_mean            =   3.0549944912656E-07
(PID.TID 0000.0001) %MON dynstat_uvel_sd              =   3.8958537857326E-05
(PID.TID 0000.0001) %MON dynstat_uvel_del2            =   2.3248907911199E-07
(PID.TID 0000.0001) %MON dynstat_vvel_max             =   1.1676077846383E-03
(PID.TID 0000.0001) %MON dynstat_vvel_min             =  -1.2398634085349E-03
(PID.TID 0000.0001) %MON dynstat_vvel_mean            =  -1.9747016255159E-04
(PID.TID 0000.0001) %MON dynstat_vvel_sd              =   8.8296490531347E-05
(PID.TID 0000.0001) %MON dynstat_vvel_del2            =   3.6335741928460E-07
(PID.TID 0000.0001) %MON dynstat_wvel_max             =   2.3349662746712E-04
(PID.TID 0000.0001) %MON dynstat_wvel_min             =  -2.5909183430764E-04
(PID.TID 0000.0001) %MON dynstat_wvel_mean            =  -5.2218000121598E-08
(PID.TID 0000.0001) %MON dynstat_wvel_sd              =   3.3227263685137E-05
(PID.TID 0000.0001) %MON dynstat_wvel_del2            =   1.8150595472743E-07
(PID.TID 0000.0001) %MON dynstat_theta_max            =   1.2000000000000E+00
(PID.TID 0000.0001) %MON dynstat_theta_min            =  -1.0000000000000E+00
(PID.TID 0000.0001) %MON dynstat_theta_mean           =   5.6549230663687E-01
(PID.TID 0000.0001) %MON dynstat_theta_sd             =   8.4906593596236E-01
(PID.TID 0000.0001) %MON dynstat_theta_del2           =   3.3208064227143E-06
(PID.TID 0000.0001) %MON dynstat_salt_max             =   3.4700000000000E+01
(PID.TID 0000.0001) %MON dynstat_salt_min             =   3.4000000000000E+01
(PID.TID 0000.0001) %MON dynstat_salt_mean            =   3.4498110154930E+01
(PID.TID 0000.0001) %MON dynstat_salt_sd              =   2.7015747882871E-01
(PID.TID 0000.0001) %MON dynstat_salt_del2            =   1.0549951285434E-06
(PID.TID 0000.0001) %MON advcfl_uvel_max              =   1.0580950419339E-04
(PID.TID 0000.0001) %MON advcfl_vvel_max              =   1.2398634085349E-04
(PID.TID 0000.0001) %MON advcfl_wvel_max              =   1.2954591715382E-03
(PID.TID 0000.0001) %MON advcfl_W_hf_max              =   1.2954591715382E-03
(PID.TID 0000.0001) %MON pe_b_mean                    =  -6.8378215995677E-01
(PID.TID 0000.0001) %MON ke_max                       =   1.0497850686315E-06
(PID.TID 0000.0001) %MON ke_mean                      =   2.4027498224927E-08
(PID.TID 0000.0001) %MON ke_vol                       =   4.6182809371314E+12
(PID.TID 0000.0001) // =======================================================
(PID.TID 0000.0001) // End MONITOR dynamic field statistics
(PID.TID 0000.0001) // =======================================================
(PID.TID 0000.0001) // =======================================================
(PID.TID 0000.0001) // Begin OBCS MONITOR field statistics
(PID.TID 0000.0001) // =======================================================
(PID.TID 0000.0001) %MON obc_N_vVel_max               =  -1.7686006216008E-04
(PID.TID 0000.0001) %MON obc_N_vVel_min               =  -1.7686006216008E-04
(PID.TID 0000.0001) %MON obc_N_vVel_mean              =  -1.7686006216008E-04
(PID.TID 0000.0001) %MON obc_N_vVel_sd                =  -2.5609511764642E-21
(PID.TID 0000.0001) %MON obc_N_vVel_Int               =  -1.1672764102565E+04
(PID.TID 0000.0001) // =======================================================
(PID.TID 0000.0001) // End OBCS MONITOR field statistics
(PID.TID 0000.0001) // =======================================================
 cg2d: Sum(rhs),rhsMax =   3.01723344232325E+00  4.53054446756199E+02
(PID.TID 0000.0001)      cg2d_init_res =   5.85295682247046E-06
(PID.TID 0000.0001)      cg2d_iters(min,last) =      -1      79
(PID.TID 0000.0001)      cg2d_last_res =   9.78192018374851E-12
(PID.TID 0000.0001) // =======================================================
(PID.TID 0000.0001) // Begin MONITOR dynamic field statistics
(PID.TID 0000.0001) // =======================================================
(PID.TID 0000.0001) %MON time_tsnumber                =                    64
(PID.TID 0000.0001) %MON time_secondsf                =   6.4000000000000E+03
(PID.TID 0000.0001) %MON dynstat_eta_max              =   5.7772007082231E+00
(PID.TID 0000.0001) %MON dynstat_eta_min              =  -1.4204166907693E+01
(PID.TID 0000.0001) %MON dynstat_eta_mean             =  -2.5314278295297E+00
(PID.TID 0000.0001) %MON dynstat_eta_sd               =   4.9432767222456E+00
(PID.TID 0000.0001) %MON dynstat_eta_del2             =   1.9057743046673E-01
(PID.TID 0000.0001) %MON dynstat_uvel_max             =   9.5950713995308E-04
(PID.TID 0000.0001) %MON dynstat_uvel_min             =  -1.0806590997383E-03
(PID.TID 0000.0001) %MON dynstat_uvel_mean            =   2.4040616119355E-08
(PID.TID 0000.0001) %MON dynstat_uvel_sd              =   3.9583699220103E-05
(PID.TID 0000.0001) %MON dynstat_uvel_del2            =   2.3853357670452E-07
(PID.TID 0000.0001) %MON dynstat_vvel_max             =   1.1982100109762E-03
(PID.TID 0000.0001) %MON dynstat_vvel_min             =  -1.2699336446160E-03
(PID.TID 0000.0001) %MON dynstat_vvel_mean            =  -1.9630139697429E-04
(PID.TID 0000.0001) %MON dynstat_vvel_sd              =   8.7356045562334E-05
(PID.TID 0000.0001) %MON dynstat_vvel_del2            =   3.6446406530448E-07
(PID.TID 0000.0001) %MON dynstat_wvel_max             =   1.9574092345054E-04
(PID.TID 0000.0001) %MON dynstat_wvel_min             =  -2.5888356277068E-04
(PID.TID 0000.0001) %MON dynstat_wvel_mean            =  -2.8228160765035E-09
(PID.TID 0000.0001) %MON dynstat_wvel_sd              =   3.2250204241810E-05
(PID.TID 0000.0001) %MON dynstat_wvel_del2            =   1.7290975213373E-07
(PID.TID 0000.0001) %MON dynstat_theta_max            =   1.2000000000000E+00
(PID.TID 0000.0001) %MON dynstat_theta_min            =  -1.0000000000000E+00
(PID.TID 0000.0001) %MON dynstat_theta_mean           =   5.6549203032272E-01
(PID.TID 0000.0001) %MON dynstat_theta_sd             =   8.4906592759312E-01
(PID.TID 0000.0001) %MON dynstat_theta_del2           =   3.3026412738813E-06
(PID.TID 0000.0001) %MON dynstat_salt_max             =   3.4700000000000E+01
(PID.TID 0000.0001) %MON dynstat_salt_min             =   3.4000000000000E+01
(PID.TID 0000.0001) %MON dynstat_salt_mean            =   3.4498110051199E+01
(PID.TID 0000.0001) %MON dynstat_salt_sd              =   2.7015747773017E-01
(PID.TID 0000.0001) %MON dynstat_salt_del2            =   1.0490871895477E-06
(PID.TID 0000.0001) %MON advcfl_uvel_max              =   1.0806590997383E-04
(PID.TID 0000.0001) %MON advcfl_vvel_max              =   1.2699336446160E-04
(PID.TID 0000.0001) %MON advcfl_wvel_max              =   1.2944178138534E-03
(PID.TID 0000.0001) %MON advcfl_W_hf_max              =   1.2944178138534E-03
(PID.TID 0000.0001) %MON pe_b_mean                    =  -6.8374019940115E-01
(PID.TID 0000.0001) %MON ke_max                       =   1.0988105362845E-06
(PID.TID 0000.0001) %MON ke_mean                      =   2.3733890217878E-08
(PID.TID 0000.0001) %MON ke_vol                       =   4.6182821151182E+12
(PID.TID 0000.0001) // =======================================================
(PID.TID 0000.0001) // End MONITOR dynamic field statistics
(PID.TID 0000.0001) // =======================================================
(PID.TID 0000.0001) // =======================================================
(PID.TID 0000.0001) // Begin OBCS MONITOR field statistics
(PID.TID 0000.0001) // =======================================================
(PID.TID 0000.0001) %MON obc_N_vVel_max               =  -1.8073697967306E-04
(PID.TID 0000.0001) %MON obc_N_vVel_min               =  -1.8073697967306E-04
(PID.TID 0000.0001) %MON obc_N_vVel_mean              =  -1.8073697967306E-04
(PID.TID 0000.0001) %MON obc_N_vVel_sd                =  -1.4889251025954E-21
(PID.TID 0000.0001) %MON obc_N_vVel_Int               =  -1.1928640658422E+04
(PID.TID 0000.0001) // =======================================================
(PID.TID 0000.0001) // End OBCS MONITOR field statistics
(PID.TID 0000.0001) // =======================================================
 cg2d: Sum(rhs),rhsMax =   3.01699341549831E+00  4.53054563872537E+02
(PID.TID 0000.0001)      cg2d_init_res =   5.55996166769528E-06
(PID.TID 0000.0001)      cg2d_iters(min,last) =      -1      84
(PID.TID 0000.0001)      cg2d_last_res =   9.79035418790102E-12
(PID.TID 0000.0001) // =======================================================
(PID.TID 0000.0001) // Begin MONITOR dynamic field statistics
(PID.TID 0000.0001) // =======================================================
(PID.TID 0000.0001) %MON time_tsnumber                =                    65
(PID.TID 0000.0001) %MON time_secondsf                =   6.5000000000000E+03
(PID.TID 0000.0001) %MON dynstat_eta_max              =   5.7775243026593E+00
(PID.TID 0000.0001) %MON dynstat_eta_min              =  -1.4203845441961E+01
(PID.TID 0000.0001) %MON dynstat_eta_mean             =  -2.5312271038239E+00
(PID.TID 0000.0001) %MON dynstat_eta_sd               =   4.9432162003503E+00
(PID.TID 0000.0001) %MON dynstat_eta_del2             =   1.9057743012018E-01
(PID.TID 0000.0001) %MON dynstat_uvel_max             =   9.8784621200743E-04
(PID.TID 0000.0001) %MON dynstat_uvel_min             =  -1.1023313868890E-03
(PID.TID 0000.0001) %MON dynstat_uvel_mean            =  -2.4530373660442E-07
(PID.TID 0000.0001) %MON dynstat_uvel_sd              =   4.0204063924298E-05
(PID.TID 0000.0001) %MON dynstat_uvel_del2            =   2.4444820974726E-07
(PID.TID 0000.0001) %MON dynstat_vvel_max             =   1.2292321653247E-03
(PID.TID 0000.0001) %MON dynstat_vvel_min             =  -1.2897569308623E-03
(PID.TID 0000.0001) %MON dynstat_vvel_mean            =  -1.8944851873805E-04
(PID.TID 0000.0001) %MON dynstat_vvel_sd              =   8.6017007863660E-05
(PID.TID 0000.0001) %MON dynstat_vvel_del2            =   3.6744779073980E-07
(PID.TID 0000.0001) %MON dynstat_wvel_max             =   1.9053002540627E-04
(PID.TID 0000.0001) %MON dynstat_wvel_min             =  -2.5383062213705E-04
(PID.TID 0000.0001) %MON dynstat_wvel_mean            =   4.3168845002490E-08
(PID.TID 0000.0001) %MON dynstat_wvel_sd              =   3.1324586287716E-05
(PID.TID 0000.0001) %MON dynstat_wvel_del2            =   1.6562852233034E-07
(PID.TID 0000.0001) %MON dynstat_theta_max            =   1.2000000000000E+00
(PID.TID 0000.0001) %MON dynstat_theta_min            =  -1.0000000000000E+00
(PID.TID 0000.0001) %MON dynstat_theta_mean           =   5.6549175291117E-01
(PID.TID 0000.0001) %MON dynstat_theta_sd             =   8.4906591784504E-01
(PID.TID 0000.0001) %MON dynstat_theta_del2           =   3.2840718175401E-06
(PID.TID 0000.0001) %MON dynstat_salt_max             =   3.4700000000000E+01
(PID.TID 0000.0001) %MON dynstat_salt_min             =   3.4000000000000E+01
(PID.TID 0000.0001) %MON dynstat_salt_mean            =   3.4498109947119E+01
(PID.TID 0000.0001) %MON dynstat_salt_sd              =   2.7015747619593E-01
(PID.TID 0000.0001) %MON dynstat_salt_del2            =   1.0430481534973E-06
(PID.TID 0000.0001) %MON advcfl_uvel_max              =   1.1023313868890E-04
(PID.TID 0000.0001) %MON advcfl_vvel_max              =   1.2897569308623E-04
(PID.TID 0000.0001) %MON advcfl_wvel_max              =   1.2691531106852E-03
(PID.TID 0000.0001) %MON advcfl_W_hf_max              =   1.2691531106852E-03
(PID.TID 0000.0001) %MON pe_b_mean                    =  -6.8369995905536E-01
(PID.TID 0000.0001) %MON ke_max                       =   1.1425218305753E-06
(PID.TID 0000.0001) %MON ke_mean                      =   2.2322619458577E-08
(PID.TID 0000.0001) %MON ke_vol                       =   4.6182833186926E+12
(PID.TID 0000.0001) // =======================================================
(PID.TID 0000.0001) // End MONITOR dynamic field statistics
(PID.TID 0000.0001) // =======================================================
(PID.TID 0000.0001) // =======================================================
(PID.TID 0000.0001) // Begin OBCS MONITOR field statistics
(PID.TID 0000.0001) // =======================================================
(PID.TID 0000.0001) %MON obc_N_vVel_max               =  -1.7903036180615E-04
(PID.TID 0000.0001) %MON obc_N_vVel_min               =  -1.7903036180615E-04
(PID.TID 0000.0001) %MON obc_N_vVel_mean              =  -1.7903036180615E-04
(PID.TID 0000.0001) %MON obc_N_vVel_sd                =   3.3835158752005E-11
(PID.TID 0000.0001) %MON obc_N_vVel_Int               =  -1.1816003879206E+04
(PID.TID 0000.0001) // =======================================================
(PID.TID 0000.0001) // End OBCS MONITOR field statistics
(PID.TID 0000.0001) // =======================================================
 cg2d: Sum(rhs),rhsMax =   3.01676242816467E+00  4.53054682314528E+02
(PID.TID 0000.0001)      cg2d_init_res =   5.20908706830252E-06
(PID.TID 0000.0001)      cg2d_iters(min,last) =      -1      86
(PID.TID 0000.0001)      cg2d_last_res =   8.24007306474937E-12
(PID.TID 0000.0001) // =======================================================
(PID.TID 0000.0001) // Begin MONITOR dynamic field statistics
(PID.TID 0000.0001) // =======================================================
(PID.TID 0000.0001) %MON time_tsnumber                =                    66
(PID.TID 0000.0001) %MON time_secondsf                =   6.6000000000000E+03
(PID.TID 0000.0001) %MON dynstat_eta_max              =   5.7778251828291E+00
(PID.TID 0000.0001) %MON dynstat_eta_min              =  -1.4203543192669E+01
(PID.TID 0000.0001) %MON dynstat_eta_mean             =  -2.5310339694640E+00
(PID.TID 0000.0001) %MON dynstat_eta_sd               =   4.9431624994061E+00
(PID.TID 0000.0001) %MON dynstat_eta_del2             =   1.9057742973401E-01
(PID.TID 0000.0001) %MON dynstat_uvel_max             =   1.0161921544434E-03
(PID.TID 0000.0001) %MON dynstat_uvel_min             =  -1.1231815968067E-03
(PID.TID 0000.0001) %MON dynstat_uvel_mean            =  -4.9489170686191E-07
(PID.TID 0000.0001) %MON dynstat_uvel_sd              =   4.0822810982233E-05
(PID.TID 0000.0001) %MON dynstat_uvel_del2            =   2.5023378473693E-07
(PID.TID 0000.0001) %MON dynstat_vvel_max             =   1.2602524161016E-03
(PID.TID 0000.0001) %MON dynstat_vvel_min             =  -1.3001900138896E-03
(PID.TID 0000.0001) %MON dynstat_vvel_mean            =  -1.7752139460741E-04
(PID.TID 0000.0001) %MON dynstat_vvel_sd              =   8.4470990387811E-05
(PID.TID 0000.0001) %MON dynstat_vvel_del2            =   3.7245634005137E-07
(PID.TID 0000.0001) %MON dynstat_wvel_max             =   2.2172071632629E-04
(PID.TID 0000.0001) %MON dynstat_wvel_min             =  -2.4388852558992E-04
(PID.TID 0000.0001) %MON dynstat_wvel_mean            =   8.4718371988620E-08
(PID.TID 0000.0001) %MON dynstat_wvel_sd              =   3.0558688891505E-05
(PID.TID 0000.0001) %MON dynstat_wvel_del2            =   1.6063112969487E-07
(PID.TID 0000.0001) %MON dynstat_theta_max            =   1.2000000000000E+00
(PID.TID 0000.0001) %MON dynstat_theta_min            =  -1.0000000000000E+00
(PID.TID 0000.0001) %MON dynstat_theta_mean           =   5.6549147672302E-01
(PID.TID 0000.0001) %MON dynstat_theta_sd             =   8.4906590583369E-01
(PID.TID 0000.0001) %MON dynstat_theta_del2           =   3.2648595294775E-06
(PID.TID 0000.0001) %MON dynstat_salt_max             =   3.4700000000000E+01
(PID.TID 0000.0001) %MON dynstat_salt_min             =   3.4000000000000E+01
(PID.TID 0000.0001) %MON dynstat_salt_mean            =   3.4498109843428E+01
(PID.TID 0000.0001) %MON dynstat_salt_sd              =   2.7015747394678E-01
(PID.TID 0000.0001) %MON dynstat_salt_del2            =   1.0368029815296E-06
(PID.TID 0000.0001) %MON advcfl_uvel_max              =   1.1231815968067E-04
(PID.TID 0000.0001) %MON advcfl_vvel_max              =   1.3001900138896E-04
(PID.TID 0000.0001) %MON advcfl_wvel_max              =   1.2194426279496E-03
(PID.TID 0000.0001) %MON advcfl_W_hf_max              =   1.2194426279496E-03
(PID.TID 0000.0001) %MON pe_b_mean                    =  -6.8366248482149E-01
(PID.TID 0000.0001) %MON ke_max                       =   1.1809375113730E-06
(PID.TID 0000.0001) %MON ke_mean                      =   2.0035720642987E-08
(PID.TID 0000.0001) %MON ke_vol                       =   4.6182845110033E+12
(PID.TID 0000.0001) // =======================================================
(PID.TID 0000.0001) // End MONITOR dynamic field statistics
(PID.TID 0000.0001) // =======================================================
(PID.TID 0000.0001) // =======================================================
(PID.TID 0000.0001) // Begin OBCS MONITOR field statistics
(PID.TID 0000.0001) // =======================================================
(PID.TID 0000.0001) %MON obc_N_vVel_max               =  -1.7219815726213E-04
(PID.TID 0000.0001) %MON obc_N_vVel_min               =  -1.7219815726214E-04
(PID.TID 0000.0001) %MON obc_N_vVel_mean              =  -1.7219815726213E-04
(PID.TID 0000.0001) %MON obc_N_vVel_sd                =   4.7258730980562E-11
(PID.TID 0000.0001) %MON obc_N_vVel_Int               =  -1.1365078379301E+04
(PID.TID 0000.0001) // =======================================================
(PID.TID 0000.0001) // End OBCS MONITOR field statistics
(PID.TID 0000.0001) // =======================================================
 cg2d: Sum(rhs),rhsMax =   3.01654653580949E+00  4.53054798522692E+02
(PID.TID 0000.0001)      cg2d_init_res =   4.83341974798468E-06
(PID.TID 0000.0001)      cg2d_iters(min,last) =      -1      86
(PID.TID 0000.0001)      cg2d_last_res =   8.07159780402920E-12
(PID.TID 0000.0001) // =======================================================
(PID.TID 0000.0001) // Begin MONITOR dynamic field statistics
(PID.TID 0000.0001) // =======================================================
(PID.TID 0000.0001) %MON time_tsnumber                =                    67
(PID.TID 0000.0001) %MON time_secondsf                =   6.7000000000000E+03
(PID.TID 0000.0001) %MON dynstat_eta_max              =   5.7780962470124E+00
(PID.TID 0000.0001) %MON dynstat_eta_min              =  -1.4203267447734E+01
(PID.TID 0000.0001) %MON dynstat_eta_mean             =  -2.5308534870657E+00
(PID.TID 0000.0001) %MON dynstat_eta_sd               =   4.9431166844696E+00
(PID.TID 0000.0001) %MON dynstat_eta_del2             =   1.9057742927948E-01
(PID.TID 0000.0001) %MON dynstat_uvel_max             =   1.0445299568733E-03
(PID.TID 0000.0001) %MON dynstat_uvel_min             =  -1.1432790850279E-03
(PID.TID 0000.0001) %MON dynstat_uvel_mean            =  -7.1734244429681E-07
(PID.TID 0000.0001) %MON dynstat_uvel_sd              =   4.1442587532148E-05
(PID.TID 0000.0001) %MON dynstat_uvel_del2            =   2.5589065353728E-07
(PID.TID 0000.0001) %MON dynstat_vvel_max             =   1.2908461176071E-03
(PID.TID 0000.0001) %MON dynstat_vvel_min             =  -1.3022450798812E-03
(PID.TID 0000.0001) %MON dynstat_vvel_mean            =  -1.6123397941273E-04
(PID.TID 0000.0001) %MON dynstat_vvel_sd              =   8.2919852170311E-05
(PID.TID 0000.0001) %MON dynstat_vvel_del2            =   3.7932061260241E-07
(PID.TID 0000.0001) %MON dynstat_wvel_max             =   2.4793345209335E-04
(PID.TID 0000.0001) %MON dynstat_wvel_min             =  -2.2912656095666E-04
(PID.TID 0000.0001) %MON dynstat_wvel_mean            =   1.2095514327027E-07
(PID.TID 0000.0001) %MON dynstat_wvel_sd              =   3.0038519034157E-05
(PID.TID 0000.0001) %MON dynstat_wvel_del2            =   1.5854406651133E-07
(PID.TID 0000.0001) %MON dynstat_theta_max            =   1.2000000000000E+00
(PID.TID 0000.0001) %MON dynstat_theta_min            =  -1.0000000000000E+00
(PID.TID 0000.0001) %MON dynstat_theta_mean           =   5.6549120385900E-01
(PID.TID 0000.0001) %MON dynstat_theta_sd             =   8.4906589073372E-01
(PID.TID 0000.0001) %MON dynstat_theta_del2           =   3.2448758711496E-06
(PID.TID 0000.0001) %MON dynstat_salt_max             =   3.4700000000000E+01
(PID.TID 0000.0001) %MON dynstat_salt_min             =   3.4000000000000E+01
(PID.TID 0000.0001) %MON dynstat_salt_mean            =   3.4498109740793E+01
(PID.TID 0000.0001) %MON dynstat_salt_sd              =   2.7015747072275E-01
(PID.TID 0000.0001) %MON dynstat_salt_del2            =   1.0303122124554E-06
(PID.TID 0000.0001) %MON advcfl_uvel_max              =   1.1432790850279E-04
(PID.TID 0000.0001) %MON advcfl_vvel_max              =   1.3022450798812E-04
(PID.TID 0000.0001) %MON advcfl_wvel_max              =   1.2396672604667E-03
(PID.TID 0000.0001) %MON advcfl_W_hf_max              =   1.2396672604667E-03
(PID.TID 0000.0001) %MON pe_b_mean                    =  -6.8362866665814E-01
(PID.TID 0000.0001) %MON ke_max                       =   1.2142990827888E-06
(PID.TID 0000.0001) %MON ke_mean                      =   1.7185962730163E-08
(PID.TID 0000.0001) %MON ke_vol                       =   4.6182856582214E+12
(PID.TID 0000.0001) // =======================================================
(PID.TID 0000.0001) // End MONITOR dynamic field statistics
(PID.TID 0000.0001) // =======================================================
(PID.TID 0000.0001) // =======================================================
(PID.TID 0000.0001) // Begin OBCS MONITOR field statistics
(PID.TID 0000.0001) // =======================================================
(PID.TID 0000.0001) %MON obc_N_vVel_max               =  -1.6081139850103E-04
(PID.TID 0000.0001) %MON obc_N_vVel_min               =  -1.6081139850103E-04
(PID.TID 0000.0001) %MON obc_N_vVel_mean              =  -1.6081139850103E-04
(PID.TID 0000.0001) %MON obc_N_vVel_sd                =   3.6060059940790E-11
(PID.TID 0000.0001) %MON obc_N_vVel_Int               =  -1.0613552301068E+04
(PID.TID 0000.0001) // =======================================================
(PID.TID 0000.0001) // End OBCS MONITOR field statistics
(PID.TID 0000.0001) // =======================================================
 cg2d: Sum(rhs),rhsMax =   3.01635091833671E+00  4.53054909226684E+02
(PID.TID 0000.0001)      cg2d_init_res =   4.47084701878521E-06
(PID.TID 0000.0001)      cg2d_iters(min,last) =      -1      85
(PID.TID 0000.0001)      cg2d_last_res =   9.87960933368818E-12
(PID.TID 0000.0001) // =======================================================
(PID.TID 0000.0001) // Begin MONITOR dynamic field statistics
(PID.TID 0000.0001) // =======================================================
(PID.TID 0000.0001) %MON time_tsnumber                =                    68
(PID.TID 0000.0001) %MON time_secondsf                =   6.8000000000000E+03
(PID.TID 0000.0001) %MON dynstat_eta_max              =   5.7783317738490E+00
(PID.TID 0000.0001) %MON dynstat_eta_min              =  -1.4203024239786E+01
(PID.TID 0000.0001) %MON dynstat_eta_mean             =  -2.5306899842646E+00
(PID.TID 0000.0001) %MON dynstat_eta_sd               =   4.9430795159212E+00
(PID.TID 0000.0001) %MON dynstat_eta_del2             =   1.9057742873372E-01
(PID.TID 0000.0001) %MON dynstat_uvel_max             =   1.0728370268058E-03
(PID.TID 0000.0001) %MON dynstat_uvel_min             =  -1.1626917731711E-03
(PID.TID 0000.0001) %MON dynstat_uvel_mean            =  -9.0601204256151E-07
(PID.TID 0000.0001) %MON dynstat_uvel_sd              =   4.2065354683990E-05
(PID.TID 0000.0001) %MON dynstat_uvel_del2            =   2.6141889020682E-07
(PID.TID 0000.0001) %MON dynstat_vvel_max             =   1.3206004212085E-03
(PID.TID 0000.0001) %MON dynstat_vvel_min             =  -1.2970506407148E-03
(PID.TID 0000.0001) %MON dynstat_vvel_mean            =  -1.4137623943690E-04
(PID.TID 0000.0001) %MON dynstat_vvel_sd              =   8.1551808036179E-05
(PID.TID 0000.0001) %MON dynstat_vvel_del2            =   3.8759561471186E-07
(PID.TID 0000.0001) %MON dynstat_wvel_max             =   2.6847578813964E-04
(PID.TID 0000.0001) %MON dynstat_wvel_min             =  -2.0976550982858E-04
(PID.TID 0000.0001) %MON dynstat_wvel_mean            =   1.5119125913779E-07
(PID.TID 0000.0001) %MON dynstat_wvel_sd              =   2.9812370473851E-05
(PID.TID 0000.0001) %MON dynstat_wvel_del2            =   1.5947343730340E-07
(PID.TID 0000.0001) %MON dynstat_theta_max            =   1.2000000000000E+00
(PID.TID 0000.0001) %MON dynstat_theta_min            =  -1.0000000000000E+00
(PID.TID 0000.0001) %MON dynstat_theta_mean           =   5.6549093615765E-01
(PID.TID 0000.0001) %MON dynstat_theta_sd             =   8.4906587184227E-01
(PID.TID 0000.0001) %MON dynstat_theta_del2           =   3.2241291008152E-06
(PID.TID 0000.0001) %MON dynstat_salt_max             =   3.4700000000000E+01
(PID.TID 0000.0001) %MON dynstat_salt_min             =   3.4000000000000E+01
(PID.TID 0000.0001) %MON dynstat_salt_mean            =   3.4498109639802E+01
(PID.TID 0000.0001) %MON dynstat_salt_sd              =   2.7015746629756E-01
(PID.TID 0000.0001) %MON dynstat_salt_del2            =   1.0235751227086E-06
(PID.TID 0000.0001) %MON advcfl_uvel_max              =   1.1626917731711E-04
(PID.TID 0000.0001) %MON advcfl_vvel_max              =   1.3206004212085E-04
(PID.TID 0000.0001) %MON advcfl_wvel_max              =   1.3423789406982E-03
(PID.TID 0000.0001) %MON advcfl_W_hf_max              =   1.3423789406982E-03
(PID.TID 0000.0001) %MON pe_b_mean                    =  -6.8359922350544E-01
(PID.TID 0000.0001) %MON ke_max                       =   1.2430155716101E-06
(PID.TID 0000.0001) %MON ke_mean                      =   1.4111376787163E-08
(PID.TID 0000.0001) %MON ke_vol                       =   4.6182867302868E+12
(PID.TID 0000.0001) // =======================================================
(PID.TID 0000.0001) // End MONITOR dynamic field statistics
(PID.TID 0000.0001) // =======================================================
(PID.TID 0000.0001) // =======================================================
(PID.TID 0000.0001) // Begin OBCS MONITOR field statistics
(PID.TID 0000.0001) // =======================================================
(PID.TID 0000.0001) %MON obc_N_vVel_max               =  -1.4552976787378E-04
(PID.TID 0000.0001) %MON obc_N_vVel_min               =  -1.4552976787378E-04
(PID.TID 0000.0001) %MON obc_N_vVel_mean              =  -1.4552976787378E-04
(PID.TID 0000.0001) %MON obc_N_vVel_sd                =   2.0418105414723E-11
(PID.TID 0000.0001) %MON obc_N_vVel_Int               =  -9.6049646796697E+03
(PID.TID 0000.0001) // =======================================================
(PID.TID 0000.0001) // End OBCS MONITOR field statistics
(PID.TID 0000.0001) // =======================================================
 cg2d: Sum(rhs),rhsMax =   3.01617979468822E+00  4.53055011505281E+02
(PID.TID 0000.0001)      cg2d_init_res =   4.16065876068488E-06
(PID.TID 0000.0001)      cg2d_iters(min,last) =      -1      85
(PID.TID 0000.0001)      cg2d_last_res =   8.83419484153374E-12
(PID.TID 0000.0001) // =======================================================
(PID.TID 0000.0001) // Begin MONITOR dynamic field statistics
(PID.TID 0000.0001) // =======================================================
(PID.TID 0000.0001) %MON time_tsnumber                =                    69
(PID.TID 0000.0001) %MON time_secondsf                =   6.9000000000000E+03
(PID.TID 0000.0001) %MON dynstat_eta_max              =   5.7785274805725E+00
(PID.TID 0000.0001) %MON dynstat_eta_min              =  -1.4202818265795E+01
(PID.TID 0000.0001) %MON dynstat_eta_mean             =  -2.5305469844157E+00
(PID.TID 0000.0001) %MON dynstat_eta_sd               =   4.9430514486566E+00
(PID.TID 0000.0001) %MON dynstat_eta_del2             =   1.9057742807560E-01
(PID.TID 0000.0001) %MON dynstat_uvel_max             =   1.1010838957759E-03
(PID.TID 0000.0001) %MON dynstat_uvel_min             =  -1.1814853810144E-03
(PID.TID 0000.0001) %MON dynstat_uvel_mean            =  -1.0554688657725E-06
(PID.TID 0000.0001) %MON dynstat_uvel_sd              =   4.2692316439237E-05
(PID.TID 0000.0001) %MON dynstat_uvel_del2            =   2.6681847855191E-07
(PID.TID 0000.0001) %MON dynstat_vvel_max             =   1.3491269145645E-03
(PID.TID 0000.0001) %MON dynstat_vvel_min             =  -1.2858125080237E-03
(PID.TID 0000.0001) %MON dynstat_vvel_mean            =  -1.1878598871134E-04
(PID.TID 0000.0001) %MON dynstat_vvel_sd              =   8.0517865288875E-05
(PID.TID 0000.0001) %MON dynstat_vvel_del2            =   3.9664703381083E-07
(PID.TID 0000.0001) %MON dynstat_wvel_max             =   2.8513568515490E-04
(PID.TID 0000.0001) %MON dynstat_wvel_min             =  -1.8624295112743E-04
(PID.TID 0000.0001) %MON dynstat_wvel_mean            =   1.7493726184906E-07
(PID.TID 0000.0001) %MON dynstat_wvel_sd              =   2.9881741450611E-05
(PID.TID 0000.0001) %MON dynstat_wvel_del2            =   1.6297822220152E-07
(PID.TID 0000.0001) %MON dynstat_theta_max            =   1.2000000000000E+00
(PID.TID 0000.0001) %MON dynstat_theta_min            =  -1.0000000000000E+00
(PID.TID 0000.0001) %MON dynstat_theta_mean           =   5.6549067516584E-01
(PID.TID 0000.0001) %MON dynstat_theta_sd             =   8.4906584872181E-01
(PID.TID 0000.0001) %MON dynstat_theta_del2           =   3.2027464064999E-06
(PID.TID 0000.0001) %MON dynstat_salt_max             =   3.4700000000000E+01
(PID.TID 0000.0001) %MON dynstat_salt_min             =   3.4000000000000E+01
(PID.TID 0000.0001) %MON dynstat_salt_mean            =   3.4498109540944E+01
(PID.TID 0000.0001) %MON dynstat_salt_sd              =   2.7015746053455E-01
(PID.TID 0000.0001) %MON dynstat_salt_del2            =   1.0166334949299E-06
(PID.TID 0000.0001) %MON advcfl_uvel_max              =   1.1814853810144E-04
(PID.TID 0000.0001) %MON advcfl_vvel_max              =   1.3491269145645E-04
(PID.TID 0000.0001) %MON advcfl_wvel_max              =   1.4256784257745E-03
(PID.TID 0000.0001) %MON advcfl_W_hf_max              =   1.4256784257745E-03
(PID.TID 0000.0001) %MON pe_b_mean                    =  -6.8357469428511E-01
(PID.TID 0000.0001) %MON ke_max                       =   1.2676067929195E-06
(PID.TID 0000.0001) %MON ke_mean                      =   1.1133313532888E-08
(PID.TID 0000.0001) %MON ke_vol                       =   4.6182877014935E+12
(PID.TID 0000.0001) // =======================================================
(PID.TID 0000.0001) // End MONITOR dynamic field statistics
(PID.TID 0000.0001) // =======================================================
(PID.TID 0000.0001) // =======================================================
(PID.TID 0000.0001) // Begin OBCS MONITOR field statistics
(PID.TID 0000.0001) // =======================================================
(PID.TID 0000.0001) %MON obc_N_vVel_max               =  -1.2707711751199E-04
(PID.TID 0000.0001) %MON obc_N_vVel_min               =  -1.2707711751200E-04
(PID.TID 0000.0001) %MON obc_N_vVel_mean              =  -1.2707711751200E-04
(PID.TID 0000.0001) %MON obc_N_vVel_sd                =  -1.2870930331325E-21
(PID.TID 0000.0001) %MON obc_N_vVel_Int               =  -8.3870897557919E+03
(PID.TID 0000.0001) // =======================================================
(PID.TID 0000.0001) // End OBCS MONITOR field statistics
(PID.TID 0000.0001) // =======================================================
 cg2d: Sum(rhs),rhsMax =   3.01603636980354E+00  4.53055102833052E+02
(PID.TID 0000.0001)      cg2d_init_res =   3.93783855573508E-06
(PID.TID 0000.0001)      cg2d_iters(min,last) =      -1      85
(PID.TID 0000.0001)      cg2d_last_res =   7.69075101627847E-12
(PID.TID 0000.0001) // =======================================================
(PID.TID 0000.0001) // Begin MONITOR dynamic field statistics
(PID.TID 0000.0001) // =======================================================
(PID.TID 0000.0001) %MON time_tsnumber                =                    70
(PID.TID 0000.0001) %MON time_secondsf                =   7.0000000000000E+03
(PID.TID 0000.0001) %MON dynstat_eta_max              =   5.7786805422891E+00
(PID.TID 0000.0001) %MON dynstat_eta_min              =  -1.4202652845251E+01
(PID.TID 0000.0001) %MON dynstat_eta_mean             =  -2.5304271623511E+00
(PID.TID 0000.0001) %MON dynstat_eta_sd               =   4.9430326399677E+00
(PID.TID 0000.0001) %MON dynstat_eta_del2             =   1.9057742729223E-01
(PID.TID 0000.0001) %MON dynstat_uvel_max             =   1.1292352726233E-03
(PID.TID 0000.0001) %MON dynstat_uvel_min             =  -1.1997227501617E-03
(PID.TID 0000.0001) %MON dynstat_uvel_mean            =  -1.1619112828454E-06
(PID.TID 0000.0001) %MON dynstat_uvel_sd              =   4.3323909332364E-05
(PID.TID 0000.0001) %MON dynstat_uvel_del2            =   2.7208938788177E-07
(PID.TID 0000.0001) %MON dynstat_vvel_max             =   1.3760722391423E-03
(PID.TID 0000.0001) %MON dynstat_vvel_min             =  -1.2697754818327E-03
(PID.TID 0000.0001) %MON dynstat_vvel_mean            =  -9.4321339043263E-05
(PID.TID 0000.0001) %MON dynstat_vvel_sd              =   7.9912508520051E-05
(PID.TID 0000.0001) %MON dynstat_vvel_del2            =   4.0575717279513E-07
(PID.TID 0000.0001) %MON dynstat_wvel_max             =   2.9543384804567E-04
(PID.TID 0000.0001) %MON dynstat_wvel_min             =  -1.8275878868213E-04
(PID.TID 0000.0001) %MON dynstat_wvel_mean            =   1.9191357832418E-07
(PID.TID 0000.0001) %MON dynstat_wvel_sd              =   3.0202820927141E-05
(PID.TID 0000.0001) %MON dynstat_wvel_del2            =   1.6822048233043E-07
(PID.TID 0000.0001) %MON dynstat_theta_max            =   1.2000000000000E+00
(PID.TID 0000.0001) %MON dynstat_theta_min            =  -1.0000000000000E+00
(PID.TID 0000.0001) %MON dynstat_theta_mean           =   5.6549042212015E-01
(PID.TID 0000.0001) %MON dynstat_theta_sd             =   8.4906582107535E-01
(PID.TID 0000.0001) %MON dynstat_theta_del2           =   3.1809581815807E-06
(PID.TID 0000.0001) %MON dynstat_salt_max             =   3.4700000000000E+01
(PID.TID 0000.0001) %MON dynstat_salt_min             =   3.4000000000000E+01
(PID.TID 0000.0001) %MON dynstat_salt_mean            =   3.4498109444615E+01
(PID.TID 0000.0001) %MON dynstat_salt_sd              =   2.7015745334057E-01
(PID.TID 0000.0001) %MON dynstat_salt_del2            =   1.0095608814930E-06
(PID.TID 0000.0001) %MON advcfl_uvel_max              =   1.1997227501617E-04
(PID.TID 0000.0001) %MON advcfl_vvel_max              =   1.3760722391423E-04
(PID.TID 0000.0001) %MON advcfl_wvel_max              =   1.4771692402283E-03
(PID.TID 0000.0001) %MON advcfl_W_hf_max              =   1.4771692402283E-03
(PID.TID 0000.0001) %MON pe_b_mean                    =  -6.8355543482568E-01
(PID.TID 0000.0001) %MON ke_max                       =   1.2886495612203E-06
(PID.TID 0000.0001) %MON ke_mean                      =   8.5222008405215E-09
(PID.TID 0000.0001) %MON ke_vol                       =   4.6182885509126E+12
(PID.TID 0000.0001) // =======================================================
(PID.TID 0000.0001) // End MONITOR dynamic field statistics
(PID.TID 0000.0001) // =======================================================
(PID.TID 0000.0001) // =======================================================
(PID.TID 0000.0001) // Begin OBCS MONITOR field statistics
(PID.TID 0000.0001) // =======================================================
(PID.TID 0000.0001) %MON obc_N_vVel_max               =  -1.0621711838248E-04
(PID.TID 0000.0001) %MON obc_N_vVel_min               =  -1.0621711838248E-04
(PID.TID 0000.0001) %MON obc_N_vVel_mean              =  -1.0621711838248E-04
(PID.TID 0000.0001) %MON obc_N_vVel_sd                =  -2.8951321439356E-22
(PID.TID 0000.0001) %MON obc_N_vVel_Int               =  -7.0103298132439E+03
(PID.TID 0000.0001) // =======================================================
(PID.TID 0000.0001) // End OBCS MONITOR field statistics
(PID.TID 0000.0001) // =======================================================
 cg2d: Sum(rhs),rhsMax =   3.01592281310421E+00  4.53055181121186E+02
(PID.TID 0000.0001)      cg2d_init_res =   3.82406855658923E-06
(PID.TID 0000.0001)      cg2d_iters(min,last) =      -1      84
(PID.TID 0000.0001)      cg2d_last_res =   8.54594553022518E-12
(PID.TID 0000.0001) // =======================================================
(PID.TID 0000.0001) // Begin MONITOR dynamic field statistics
(PID.TID 0000.0001) // =======================================================
(PID.TID 0000.0001) %MON time_tsnumber                =                    71
(PID.TID 0000.0001) %MON time_secondsf                =   7.1000000000000E+03
(PID.TID 0000.0001) %MON dynstat_eta_max              =   5.7787895758931E+00
(PID.TID 0000.0001) %MON dynstat_eta_min              =  -1.4202529908963E+01
(PID.TID 0000.0001) %MON dynstat_eta_mean             =  -2.5303323265527E+00
(PID.TID 0000.0001) %MON dynstat_eta_sd               =   4.9430229650688E+00
(PID.TID 0000.0001) %MON dynstat_eta_del2             =   1.9057742637379E-01
(PID.TID 0000.0001) %MON dynstat_uvel_max             =   1.1572512855356E-03
(PID.TID 0000.0001) %MON dynstat_uvel_min             =  -1.2174631883326E-03
(PID.TID 0000.0001) %MON dynstat_uvel_mean            =  -1.2234676937230E-06
(PID.TID 0000.0001) %MON dynstat_uvel_sd              =   4.3959868301770E-05
(PID.TID 0000.0001) %MON dynstat_uvel_del2            =   2.7723167974332E-07
(PID.TID 0000.0001) %MON dynstat_vvel_max             =   1.4011273219534E-03
(PID.TID 0000.0001) %MON dynstat_vvel_min             =  -1.2501866081416E-03
(PID.TID 0000.0001) %MON dynstat_vvel_mean            =  -6.8834437826701E-05
(PID.TID 0000.0001) %MON dynstat_vvel_sd              =   7.9763347538582E-05
(PID.TID 0000.0001) %MON dynstat_vvel_del2            =   4.1422625325811E-07
(PID.TID 0000.0001) %MON dynstat_wvel_max             =   2.9880608529477E-04
(PID.TID 0000.0001) %MON dynstat_wvel_min             =  -1.9408285104971E-04
(PID.TID 0000.0001) %MON dynstat_wvel_mean            =   2.0205576417749E-07
(PID.TID 0000.0001) %MON dynstat_wvel_sd              =   3.0698197055499E-05
(PID.TID 0000.0001) %MON dynstat_wvel_del2            =   1.7419946693134E-07
(PID.TID 0000.0001) %MON dynstat_theta_max            =   1.2000000000000E+00
(PID.TID 0000.0001) %MON dynstat_theta_min            =  -1.0000000000000E+00
(PID.TID 0000.0001) %MON dynstat_theta_mean           =   5.6549017793785E-01
(PID.TID 0000.0001) %MON dynstat_theta_sd             =   8.4906578879816E-01
(PID.TID 0000.0001) %MON dynstat_theta_del2           =   3.1590600217788E-06
(PID.TID 0000.0001) %MON dynstat_salt_max             =   3.4700000000000E+01
(PID.TID 0000.0001) %MON dynstat_salt_min             =   3.4000000000000E+01
(PID.TID 0000.0001) %MON dynstat_salt_mean            =   3.4498109351105E+01
(PID.TID 0000.0001) %MON dynstat_salt_sd              =   2.7015744468354E-01
(PID.TID 0000.0001) %MON dynstat_salt_del2            =   1.0024515442389E-06
(PID.TID 0000.0001) %MON advcfl_uvel_max              =   1.2174631883326E-04
(PID.TID 0000.0001) %MON advcfl_vvel_max              =   1.4011273219534E-04
(PID.TID 0000.0001) %MON advcfl_wvel_max              =   1.4940304264739E-03
(PID.TID 0000.0001) %MON advcfl_W_hf_max              =   1.4940304264739E-03
(PID.TID 0000.0001) %MON pe_b_mean                    =  -6.8354162040059E-01
(PID.TID 0000.0001) %MON ke_max                       =   1.3067314979263E-06
(PID.TID 0000.0001) %MON ke_mean                      =   6.4737598544088E-09
(PID.TID 0000.0001) %MON ke_vol                       =   4.6182892626556E+12
(PID.TID 0000.0001) // =======================================================
(PID.TID 0000.0001) // End MONITOR dynamic field statistics
(PID.TID 0000.0001) // =======================================================
(PID.TID 0000.0001) // =======================================================
(PID.TID 0000.0001) // Begin OBCS MONITOR field statistics
(PID.TID 0000.0001) // =======================================================
(PID.TID 0000.0001) %MON obc_N_vVel_max               =  -8.3729485389344E-05
(PID.TID 0000.0001) %MON obc_N_vVel_min               =  -8.3729485389345E-05
(PID.TID 0000.0001) %MON obc_N_vVel_mean              =  -8.3729485389344E-05
(PID.TID 0000.0001) %MON obc_N_vVel_sd                =   2.0938140429682E-11
(PID.TID 0000.0001) %MON obc_N_vVel_Int               =  -5.5261460356967E+03
(PID.TID 0000.0001) // =======================================================
(PID.TID 0000.0001) // End OBCS MONITOR field statistics
(PID.TID 0000.0001) // =======================================================
 cg2d: Sum(rhs),rhsMax =   3.01584026730210E+00  4.53055244749356E+02
(PID.TID 0000.0001)      cg2d_init_res =   3.81994546067995E-06
(PID.TID 0000.0001)      cg2d_iters(min,last) =      -1      83
(PID.TID 0000.0001)      cg2d_last_res =   8.51257905537708E-12
(PID.TID 0000.0001) // =======================================================
(PID.TID 0000.0001) // Begin MONITOR dynamic field statistics
(PID.TID 0000.0001) // =======================================================
(PID.TID 0000.0001) %MON time_tsnumber                =                    72
(PID.TID 0000.0001) %MON time_secondsf                =   7.2000000000000E+03
(PID.TID 0000.0001) %MON dynstat_eta_max              =   5.7788545808897E+00
(PID.TID 0000.0001) %MON dynstat_eta_min              =  -1.4202450030655E+01
(PID.TID 0000.0001) %MON dynstat_eta_mean             =  -2.5302634267176E+00
(PID.TID 0000.0001) %MON dynstat_eta_sd               =   4.9430220399642E+00
(PID.TID 0000.0001) %MON dynstat_eta_del2             =   1.9057742531939E-01
(PID.TID 0000.0001) %MON dynstat_uvel_max             =   1.1850889155820E-03
(PID.TID 0000.0001) %MON dynstat_uvel_min             =  -1.2347618799282E-03
(PID.TID 0000.0001) %MON dynstat_uvel_mean            =  -1.2403343580096E-06
(PID.TID 0000.0001) %MON dynstat_uvel_sd              =   4.4599333720270E-05
(PID.TID 0000.0001) %MON dynstat_uvel_del2            =   2.8224557140504E-07
(PID.TID 0000.0001) %MON dynstat_vvel_max             =   1.4240350348071E-03
(PID.TID 0000.0001) %MON dynstat_vvel_min             =  -1.2282606160618E-03
(PID.TID 0000.0001) %MON dynstat_vvel_mean            =  -4.3147112818012E-05
(PID.TID 0000.0001) %MON dynstat_vvel_sd              =   8.0032801594641E-05
(PID.TID 0000.0001) %MON dynstat_vvel_del2            =   4.2145410328750E-07
(PID.TID 0000.0001) %MON dynstat_wvel_max             =   2.9585777885241E-04
(PID.TID 0000.0001) %MON dynstat_wvel_min             =  -2.0475874707024E-04
(PID.TID 0000.0001) %MON dynstat_wvel_mean            =   2.0551123330889E-07
(PID.TID 0000.0001) %MON dynstat_wvel_sd              =   3.1273896812889E-05
(PID.TID 0000.0001) %MON dynstat_wvel_del2            =   1.7995450405795E-07
(PID.TID 0000.0001) %MON dynstat_theta_max            =   1.2000000000000E+00
(PID.TID 0000.0001) %MON dynstat_theta_min            =  -1.0000000000000E+00
(PID.TID 0000.0001) %MON dynstat_theta_mean           =   5.6548994321630E-01
(PID.TID 0000.0001) %MON dynstat_theta_sd             =   8.4906575190160E-01
(PID.TID 0000.0001) %MON dynstat_theta_del2           =   3.1373744965484E-06
(PID.TID 0000.0001) %MON dynstat_salt_max             =   3.4700000000000E+01
(PID.TID 0000.0001) %MON dynstat_salt_min             =   3.4000000000000E+01
(PID.TID 0000.0001) %MON dynstat_salt_mean            =   3.4498109260606E+01
(PID.TID 0000.0001) %MON dynstat_salt_sd              =   2.7015743456837E-01
(PID.TID 0000.0001) %MON dynstat_salt_del2            =   9.9540836349126E-07
(PID.TID 0000.0001) %MON advcfl_uvel_max              =   1.2347618799282E-04
(PID.TID 0000.0001) %MON advcfl_vvel_max              =   1.4240350348071E-04
(PID.TID 0000.0001) %MON advcfl_wvel_max              =   1.4792888942621E-03
(PID.TID 0000.0001) %MON advcfl_W_hf_max              =   1.4792888942621E-03
(PID.TID 0000.0001) %MON pe_b_mean                    =  -6.8353325341970E-01
(PID.TID 0000.0001) %MON ke_max                       =   1.3224147268776E-06
(PID.TID 0000.0001) %MON ke_mean                      =   5.0969049102001E-09
(PID.TID 0000.0001) %MON ke_vol                       =   4.6182898259803E+12
(PID.TID 0000.0001) // =======================================================
(PID.TID 0000.0001) // End MONITOR dynamic field statistics
(PID.TID 0000.0001) // =======================================================
(PID.TID 0000.0001) // =======================================================
(PID.TID 0000.0001) // Begin OBCS MONITOR field statistics
(PID.TID 0000.0001) // =======================================================
(PID.TID 0000.0001) %MON obc_N_vVel_max               =  -6.0387125022721E-05
(PID.TID 0000.0001) %MON obc_N_vVel_min               =  -6.0387125022723E-05
(PID.TID 0000.0001) %MON obc_N_vVel_mean              =  -6.0387125022723E-05
(PID.TID 0000.0001) %MON obc_N_vVel_sd                =  -3.0274810419441E-22
(PID.TID 0000.0001) %MON obc_N_vVel_Int               =  -3.9855502514997E+03
(PID.TID 0000.0001) // =======================================================
(PID.TID 0000.0001) // End OBCS MONITOR field statistics
(PID.TID 0000.0001) // =======================================================
 cg2d: Sum(rhs),rhsMax =   3.01177572920104E+00  4.53055292584736E+02
(PID.TID 0000.0001)      cg2d_init_res =   3.08202819680482E-05
(PID.TID 0000.0001)      cg2d_iters(min,last) =      -1      84
(PID.TID 0000.0001)      cg2d_last_res =   9.81382408577171E-12
(PID.TID 0000.0001) // =======================================================
(PID.TID 0000.0001) // Begin MONITOR dynamic field statistics
(PID.TID 0000.0001) // =======================================================
(PID.TID 0000.0001) %MON time_tsnumber                =                    73
(PID.TID 0000.0001) %MON time_secondsf                =   7.3000000000000E+03
(PID.TID 0000.0001) %MON dynstat_eta_max              =   5.7970536529998E+00
(PID.TID 0000.0001) %MON dynstat_eta_min              =  -1.4176683128024E+01
(PID.TID 0000.0001) %MON dynstat_eta_mean             =  -2.5268535818385E+00
(PID.TID 0000.0001) %MON dynstat_eta_sd               =   4.9418887589845E+00
(PID.TID 0000.0001) %MON dynstat_eta_del2             =   1.9058067132953E-01
(PID.TID 0000.0001) %MON dynstat_uvel_max             =   1.2127036863987E-03
(PID.TID 0000.0001) %MON dynstat_uvel_min             =  -1.2516670571898E-03
(PID.TID 0000.0001) %MON dynstat_uvel_mean            =  -1.2102427113662E-06
(PID.TID 0000.0001) %MON dynstat_uvel_sd              =   4.5240040371254E-05
(PID.TID 0000.0001) %MON dynstat_uvel_del2            =   2.8713267745475E-07
(PID.TID 0000.0001) %MON dynstat_vvel_max             =   1.4446040993104E-03
(PID.TID 0000.0001) %MON dynstat_vvel_min             =  -1.2051483157176E-03
(PID.TID 0000.0001) %MON dynstat_vvel_mean            =  -1.8028190528517E-05
(PID.TID 0000.0001) %MON dynstat_vvel_sd              =   8.0631863152355E-05
(PID.TID 0000.0001) %MON dynstat_vvel_del2            =   4.2700033394484E-07
(PID.TID 0000.0001) %MON dynstat_wvel_max             =   2.9034008999815E-04
(PID.TID 0000.0001) %MON dynstat_wvel_min             =  -2.1249574845271E-04
(PID.TID 0000.0001) %MON dynstat_wvel_mean            =   2.0262507080833E-07
(PID.TID 0000.0001) %MON dynstat_wvel_sd              =   3.1836045031351E-05
(PID.TID 0000.0001) %MON dynstat_wvel_del2            =   1.8468872920169E-07
(PID.TID 0000.0001) %MON dynstat_theta_max            =   1.2000000000000E+00
(PID.TID 0000.0001) %MON dynstat_theta_min            =  -1.0000000000000E+00
(PID.TID 0000.0001) %MON dynstat_theta_mean           =   5.6548971823253E-01
(PID.TID 0000.0001) %MON dynstat_theta_sd             =   8.4906570350189E-01
(PID.TID 0000.0001) %MON dynstat_theta_del2           =   3.1379562223765E-06
(PID.TID 0000.0001) %MON dynstat_salt_max             =   3.4700000000000E+01
(PID.TID 0000.0001) %MON dynstat_salt_min             =   3.4000000000000E+01
(PID.TID 0000.0001) %MON dynstat_salt_mean            =   3.4498109173206E+01
(PID.TID 0000.0001) %MON dynstat_salt_sd              =   2.7015742078373E-01
(PID.TID 0000.0001) %MON dynstat_salt_del2            =   9.9548300459124E-07
(PID.TID 0000.0001) %MON advcfl_uvel_max              =   1.2516670571898E-04
(PID.TID 0000.0001) %MON advcfl_vvel_max              =   1.4446040993104E-04
(PID.TID 0000.0001) %MON advcfl_wvel_max              =   1.4517004499908E-03
(PID.TID 0000.0001) %MON advcfl_W_hf_max              =   1.4517004499908E-03
(PID.TID 0000.0001) %MON pe_b_mean                    =  -6.8280275956401E-01
(PID.TID 0000.0001) %MON ke_max                       =   1.3362119368991E-06
(PID.TID 0000.0001) %MON ke_mean                      =   4.4130818252428E-09
(PID.TID 0000.0001) %MON ke_vol                       =   4.6182902352453E+12
(PID.TID 0000.0001) // =======================================================
(PID.TID 0000.0001) // End MONITOR dynamic field statistics
(PID.TID 0000.0001) // =======================================================
(PID.TID 0000.0001) // =======================================================
(PID.TID 0000.0001) // Begin OBCS MONITOR field statistics
(PID.TID 0000.0001) // =======================================================
(PID.TID 0000.0001) %MON obc_N_vVel_max               =  -3.6934636316531E-05
(PID.TID 0000.0001) %MON obc_N_vVel_min               =  -3.6934636316532E-05
(PID.TID 0000.0001) %MON obc_N_vVel_mean              =  -3.6934636316532E-05
(PID.TID 0000.0001) %MON obc_N_vVel_sd                =   2.4062967996220E-12
(PID.TID 0000.0001) %MON obc_N_vVel_Int               =  -2.4376859968911E+03
(PID.TID 0000.0001) // =======================================================
(PID.TID 0000.0001) // End OBCS MONITOR field statistics
(PID.TID 0000.0001) // =======================================================
 cg2d: Sum(rhs),rhsMax =   3.01175474168407E+00  4.53055324013203E+02
(PID.TID 0000.0001)      cg2d_init_res =   4.10183402794734E-06
(PID.TID 0000.0001)      cg2d_iters(min,last) =      -1      83
(PID.TID 0000.0001)      cg2d_last_res =   9.33811313048604E-12
(PID.TID 0000.0001) // =======================================================
(PID.TID 0000.0001) // Begin MONITOR dynamic field statistics
(PID.TID 0000.0001) // =======================================================
(PID.TID 0000.0001) %MON time_tsnumber                =                    74
(PID.TID 0000.0001) %MON time_secondsf                =   7.4000000000000E+03
(PID.TID 0000.0001) %MON dynstat_eta_max              =   5.7970571401426E+00
(PID.TID 0000.0001) %MON dynstat_eta_min              =  -1.4176720296703E+01
(PID.TID 0000.0001) %MON dynstat_eta_mean             =  -2.5268361487814E+00
(PID.TID 0000.0001) %MON dynstat_eta_sd               =   4.9419032893044E+00
(PID.TID 0000.0001) %MON dynstat_eta_del2             =   1.9058067022368E-01
(PID.TID 0000.0001) %MON dynstat_uvel_max             =   1.2400514377955E-03
(PID.TID 0000.0001) %MON dynstat_uvel_min             =  -1.2783415968602E-03
(PID.TID 0000.0001) %MON dynstat_uvel_mean            =  -1.1431681480363E-06
(PID.TID 0000.0001) %MON dynstat_uvel_sd              =   4.5882391649755E-05
(PID.TID 0000.0001) %MON dynstat_uvel_del2            =   2.9189864272619E-07
(PID.TID 0000.0001) %MON dynstat_vvel_max             =   1.4626979990018E-03
(PID.TID 0000.0001) %MON dynstat_vvel_min             =  -1.1819086072031E-03
(PID.TID 0000.0001) %MON dynstat_vvel_mean            =   5.8237599376919E-06
(PID.TID 0000.0001) %MON dynstat_vvel_sd              =   8.1439572430962E-05
(PID.TID 0000.0001) %MON dynstat_vvel_del2            =   4.3061354479612E-07
(PID.TID 0000.0001) %MON dynstat_wvel_max             =   2.7807958028076E-04
(PID.TID 0000.0001) %MON dynstat_wvel_min             =  -2.2935487482605E-04
(PID.TID 0000.0001) %MON dynstat_wvel_mean            =   1.9391424732931E-07
(PID.TID 0000.0001) %MON dynstat_wvel_sd              =   3.2303066313467E-05
(PID.TID 0000.0001) %MON dynstat_wvel_del2            =   1.8781997025421E-07
(PID.TID 0000.0001) %MON dynstat_theta_max            =   1.2000000000000E+00
(PID.TID 0000.0001) %MON dynstat_theta_min            =  -1.0000000000000E+00
(PID.TID 0000.0001) %MON dynstat_theta_mean           =   5.6548950297995E-01
(PID.TID 0000.0001) %MON dynstat_theta_sd             =   8.4906565759515E-01
(PID.TID 0000.0001) %MON dynstat_theta_del2           =   3.1174759797938E-06
(PID.TID 0000.0001) %MON dynstat_salt_max             =   3.4700000000000E+01
(PID.TID 0000.0001) %MON dynstat_salt_min             =   3.4000000000000E+01
(PID.TID 0000.0001) %MON dynstat_salt_mean            =   3.4498109088901E+01
(PID.TID 0000.0001) %MON dynstat_salt_sd              =   2.7015740783001E-01
(PID.TID 0000.0001) %MON dynstat_salt_del2            =   9.8882148514713E-07
(PID.TID 0000.0001) %MON advcfl_uvel_max              =   1.2783415968602E-04
(PID.TID 0000.0001) %MON advcfl_vvel_max              =   1.4626979990018E-04
(PID.TID 0000.0001) %MON advcfl_wvel_max              =   1.3903979014038E-03
(PID.TID 0000.0001) %MON advcfl_W_hf_max              =   1.3903979014038E-03
(PID.TID 0000.0001) %MON pe_b_mean                    =  -6.8280466854390E-01
(PID.TID 0000.0001) %MON ke_max                       =   1.3485710682663E-06
(PID.TID 0000.0001) %MON ke_mean                      =   4.3657936292458E-09
(PID.TID 0000.0001) %MON ke_vol                       =   4.6182904897239E+12
(PID.TID 0000.0001) // =======================================================
(PID.TID 0000.0001) // End MONITOR dynamic field statistics
(PID.TID 0000.0001) // =======================================================
(PID.TID 0000.0001) // =======================================================
(PID.TID 0000.0001) // Begin OBCS MONITOR field statistics
(PID.TID 0000.0001) // =======================================================
(PID.TID 0000.0001) %MON obc_N_vVel_max               =  -1.4067033276256E-05
(PID.TID 0000.0001) %MON obc_N_vVel_min               =  -1.4067033276257E-05
(PID.TID 0000.0001) %MON obc_N_vVel_mean              =  -1.4067033276257E-05
(PID.TID 0000.0001) %MON obc_N_vVel_sd                =  -1.8042877111313E-23
(PID.TID 0000.0001) %MON obc_N_vVel_Int               =  -9.2842419623294E+02
(PID.TID 0000.0001) // =======================================================
(PID.TID 0000.0001) // End OBCS MONITOR field statistics
(PID.TID 0000.0001) // =======================================================
 cg2d: Sum(rhs),rhsMax =   3.01176253877271E+00  4.53055338885546E+02
(PID.TID 0000.0001)      cg2d_init_res =   4.20338243256117E-06
(PID.TID 0000.0001)      cg2d_iters(min,last) =      -1      83
(PID.TID 0000.0001)      cg2d_last_res =   9.56407506574805E-12
(PID.TID 0000.0001) // =======================================================
(PID.TID 0000.0001) // Begin MONITOR dynamic field statistics
(PID.TID 0000.0001) // =======================================================
(PID.TID 0000.0001) %MON time_tsnumber                =                    75
(PID.TID 0000.0001) %MON time_secondsf                =   7.5000000000000E+03
(PID.TID 0000.0001) %MON dynstat_eta_max              =   5.7970191788154E+00
(PID.TID 0000.0001) %MON dynstat_eta_min              =  -1.4176803109238E+01
(PID.TID 0000.0001) %MON dynstat_eta_mean             =  -2.5268427734194E+00
(PID.TID 0000.0001) %MON dynstat_eta_sd               =   4.9419241675471E+00
(PID.TID 0000.0001) %MON dynstat_eta_del2             =   1.9058066879931E-01
(PID.TID 0000.0001) %MON dynstat_uvel_max             =   1.2670898823952E-03
(PID.TID 0000.0001) %MON dynstat_uvel_min             =  -1.3084136800749E-03
(PID.TID 0000.0001) %MON dynstat_uvel_mean            =  -1.0453751385951E-06
(PID.TID 0000.0001) %MON dynstat_uvel_sd              =   4.6524480971665E-05
(PID.TID 0000.0001) %MON dynstat_uvel_del2            =   2.9654183686014E-07
(PID.TID 0000.0001) %MON dynstat_vvel_max             =   1.4782311091732E-03
(PID.TID 0000.0001) %MON dynstat_vvel_min             =  -1.1594852317502E-03
(PID.TID 0000.0001) %MON dynstat_vvel_mean            =   2.7797268499997E-05
(PID.TID 0000.0001) %MON dynstat_vvel_sd              =   8.2325592013388E-05
(PID.TID 0000.0001) %MON dynstat_vvel_del2            =   4.3225352666581E-07
(PID.TID 0000.0001) %MON dynstat_wvel_max             =   2.5956893752790E-04
(PID.TID 0000.0001) %MON dynstat_wvel_min             =  -2.4464815816737E-04
(PID.TID 0000.0001) %MON dynstat_wvel_mean            =   1.8006754477189E-07
(PID.TID 0000.0001) %MON dynstat_wvel_sd              =   3.2613758281296E-05
(PID.TID 0000.0001) %MON dynstat_wvel_del2            =   1.8899632983819E-07
(PID.TID 0000.0001) %MON dynstat_theta_max            =   1.2000000000000E+00
(PID.TID 0000.0001) %MON dynstat_theta_min            =  -1.0000000000000E+00
(PID.TID 0000.0001) %MON dynstat_theta_mean           =   5.6548929717065E-01
(PID.TID 0000.0001) %MON dynstat_theta_sd             =   8.4906560757340E-01
(PID.TID 0000.0001) %MON dynstat_theta_del2           =   3.0979213015121E-06
(PID.TID 0000.0001) %MON dynstat_salt_max             =   3.4700000000000E+01
(PID.TID 0000.0001) %MON dynstat_salt_min             =   3.4000000000000E+01
(PID.TID 0000.0001) %MON dynstat_salt_mean            =   3.4498109007602E+01
(PID.TID 0000.0001) %MON dynstat_salt_sd              =   2.7015739358373E-01
(PID.TID 0000.0001) %MON dynstat_salt_del2            =   9.8245366412904E-07
(PID.TID 0000.0001) %MON advcfl_uvel_max              =   1.3084136800749E-04
(PID.TID 0000.0001) %MON advcfl_vvel_max              =   1.4782311091732E-04
(PID.TID 0000.0001) %MON advcfl_wvel_max              =   1.2978446876395E-03
(PID.TID 0000.0001) %MON advcfl_W_hf_max              =   1.2978446876395E-03
(PID.TID 0000.0001) %MON pe_b_mean                    =  -6.8281113696712E-01
(PID.TID 0000.0001) %MON ke_max                       =   1.3598679571049E-06
(PID.TID 0000.0001) %MON ke_mean                      =   4.8372199481194E-09
(PID.TID 0000.0001) %MON ke_vol                       =   4.6182905932762E+12
(PID.TID 0000.0001) // =======================================================
(PID.TID 0000.0001) // End MONITOR dynamic field statistics
(PID.TID 0000.0001) // =======================================================
(PID.TID 0000.0001) // =======================================================
(PID.TID 0000.0001) // Begin OBCS MONITOR field statistics
(PID.TID 0000.0001) // =======================================================
(PID.TID 0000.0001) %MON obc_N_vVel_max               =   7.5848857562221E-06
(PID.TID 0000.0001) %MON obc_N_vVel_min               =   7.5848857562220E-06
(PID.TID 0000.0001) %MON obc_N_vVel_mean              =   7.5848857562221E-06
(PID.TID 0000.0001) %MON obc_N_vVel_sd                =  -2.7271110820108E-24
(PID.TID 0000.0001) %MON obc_N_vVel_Int               =   5.0060245991066E+02
(PID.TID 0000.0001) // =======================================================
(PID.TID 0000.0001) // End OBCS MONITOR field statistics
(PID.TID 0000.0001) // =======================================================
 cg2d: Sum(rhs),rhsMax =   3.01179677479382E+00  4.53055337479356E+02
(PID.TID 0000.0001)      cg2d_init_res =   4.34954467855141E-06
(PID.TID 0000.0001)      cg2d_iters(min,last) =      -1      84
(PID.TID 0000.0001)      cg2d_last_res =   8.67773741578966E-12
(PID.TID 0000.0001) // =======================================================
(PID.TID 0000.0001) // Begin MONITOR dynamic field statistics
(PID.TID 0000.0001) // =======================================================
(PID.TID 0000.0001) %MON time_tsnumber                =                    76
(PID.TID 0000.0001) %MON time_secondsf                =   7.6000000000000E+03
(PID.TID 0000.0001) %MON dynstat_eta_max              =   5.7969450234789E+00
(PID.TID 0000.0001) %MON dynstat_eta_min              =  -1.4176925748765E+01
(PID.TID 0000.0001) %MON dynstat_eta_mean             =  -2.5268714893027E+00
(PID.TID 0000.0001) %MON dynstat_eta_sd               =   4.9419503034696E+00
(PID.TID 0000.0001) %MON dynstat_eta_del2             =   1.9058066724260E-01
(PID.TID 0000.0001) %MON dynstat_uvel_max             =   1.2937793000400E-03
(PID.TID 0000.0001) %MON dynstat_uvel_min             =  -1.3380821114257E-03
(PID.TID 0000.0001) %MON dynstat_uvel_mean            =  -9.2225556002449E-07
(PID.TID 0000.0001) %MON dynstat_uvel_sd              =   4.7164039807632E-05
(PID.TID 0000.0001) %MON dynstat_uvel_del2            =   3.0106280122278E-07
(PID.TID 0000.0001) %MON dynstat_vvel_max             =   1.4911856387254E-03
(PID.TID 0000.0001) %MON dynstat_vvel_min             =  -1.1688669438286E-03
(PID.TID 0000.0001) %MON dynstat_vvel_mean            =   4.7378931033908E-05
(PID.TID 0000.0001) %MON dynstat_vvel_sd              =   8.3170280952224E-05
(PID.TID 0000.0001) %MON dynstat_vvel_del2            =   4.3208535169308E-07
(PID.TID 0000.0001) %MON dynstat_wvel_max             =   2.3527960914014E-04
(PID.TID 0000.0001) %MON dynstat_wvel_min             =  -2.5339592832241E-04
(PID.TID 0000.0001) %MON dynstat_wvel_mean            =   1.6186317049757E-07
(PID.TID 0000.0001) %MON dynstat_wvel_sd              =   3.2730706800740E-05
(PID.TID 0000.0001) %MON dynstat_wvel_del2            =   1.8809126072303E-07
(PID.TID 0000.0001) %MON dynstat_theta_max            =   1.2000000000000E+00
(PID.TID 0000.0001) %MON dynstat_theta_min            =  -1.0000000000000E+00
(PID.TID 0000.0001) %MON dynstat_theta_mean           =   5.6548910025311E-01
(PID.TID 0000.0001) %MON dynstat_theta_sd             =   8.4906555391436E-01
(PID.TID 0000.0001) %MON dynstat_theta_del2           =   3.0793441046029E-06
(PID.TID 0000.0001) %MON dynstat_salt_max             =   3.4700000000000E+01
(PID.TID 0000.0001) %MON dynstat_salt_min             =   3.4000000000000E+01
(PID.TID 0000.0001) %MON dynstat_salt_mean            =   3.4498108929132E+01
(PID.TID 0000.0001) %MON dynstat_salt_sd              =   2.7015737819734E-01
(PID.TID 0000.0001) %MON dynstat_salt_del2            =   9.7639626953876E-07
(PID.TID 0000.0001) %MON advcfl_uvel_max              =   1.3380821114257E-04
(PID.TID 0000.0001) %MON advcfl_vvel_max              =   1.4911856387254E-04
(PID.TID 0000.0001) %MON advcfl_wvel_max              =   1.2669796416121E-03
(PID.TID 0000.0001) %MON advcfl_W_hf_max              =   1.2669796416121E-03
(PID.TID 0000.0001) %MON pe_b_mean                    =  -6.8282163328352E-01
(PID.TID 0000.0001) %MON ke_max                       =   1.3704107585132E-06
(PID.TID 0000.0001) %MON ke_mean                      =   5.6699145966966E-09
(PID.TID 0000.0001) %MON ke_vol                       =   4.6182905539259E+12
(PID.TID 0000.0001) // =======================================================
(PID.TID 0000.0001) // End MONITOR dynamic field statistics
(PID.TID 0000.0001) // =======================================================
(PID.TID 0000.0001) // =======================================================
(PID.TID 0000.0001) // Begin OBCS MONITOR field statistics
(PID.TID 0000.0001) // =======================================================
(PID.TID 0000.0001) %MON obc_N_vVel_max               =   2.7467000144197E-05
(PID.TID 0000.0001) %MON obc_N_vVel_min               =   2.7467000144196E-05
(PID.TID 0000.0001) %MON obc_N_vVel_mean              =   2.7467000144196E-05
(PID.TID 0000.0001) %MON obc_N_vVel_sd                =   5.6157155246312E-12
(PID.TID 0000.0001) %MON obc_N_vVel_Int               =   1.8128220095170E+03
(PID.TID 0000.0001) // =======================================================
(PID.TID 0000.0001) // End OBCS MONITOR field statistics
(PID.TID 0000.0001) // =======================================================
 cg2d: Sum(rhs),rhsMax =   3.01185448748150E+00  4.53055320518534E+02
(PID.TID 0000.0001)      cg2d_init_res =   4.46141913643597E-06
(PID.TID 0000.0001)      cg2d_iters(min,last) =      -1      84
(PID.TID 0000.0001)      cg2d_last_res =   9.51844087830181E-12
(PID.TID 0000.0001) // =======================================================
(PID.TID 0000.0001) // Begin MONITOR dynamic field statistics
(PID.TID 0000.0001) // =======================================================
(PID.TID 0000.0001) %MON time_tsnumber                =                    77
(PID.TID 0000.0001) %MON time_secondsf                =   7.7000000000000E+03
(PID.TID 0000.0001) %MON dynstat_eta_max              =   5.7968418709577E+00
(PID.TID 0000.0001) %MON dynstat_eta_min              =  -1.4177081646811E+01
(PID.TID 0000.0001) %MON dynstat_eta_mean             =  -2.5269198151502E+00
(PID.TID 0000.0001) %MON dynstat_eta_sd               =   4.9419805316827E+00
(PID.TID 0000.0001) %MON dynstat_eta_del2             =   1.9058066559899E-01
(PID.TID 0000.0001) %MON dynstat_uvel_max             =   1.3200832504570E-03
(PID.TID 0000.0001) %MON dynstat_uvel_min             =  -1.3673476663776E-03
(PID.TID 0000.0001) %MON dynstat_uvel_mean            =  -7.8041189705070E-07
(PID.TID 0000.0001) %MON dynstat_uvel_sd              =   4.7798704184995E-05
(PID.TID 0000.0001) %MON dynstat_uvel_del2            =   3.0546224268254E-07
(PID.TID 0000.0001) %MON dynstat_vvel_max             =   1.5016184201304E-03
(PID.TID 0000.0001) %MON dynstat_vvel_min             =  -1.1823624040943E-03
(PID.TID 0000.0001) %MON dynstat_vvel_mean            =   6.4161933479618E-05
(PID.TID 0000.0001) %MON dynstat_vvel_sd              =   8.3878703878100E-05
(PID.TID 0000.0001) %MON dynstat_vvel_del2            =   4.3046424847951E-07
(PID.TID 0000.0001) %MON dynstat_wvel_max             =   2.0580789199506E-04
(PID.TID 0000.0001) %MON dynstat_wvel_min             =  -2.5937253505444E-04
(PID.TID 0000.0001) %MON dynstat_wvel_mean            =   1.4017923089261E-07
(PID.TID 0000.0001) %MON dynstat_wvel_sd              =   3.2641298026915E-05
(PID.TID 0000.0001) %MON dynstat_wvel_del2            =   1.8519231082451E-07
(PID.TID 0000.0001) %MON dynstat_theta_max            =   1.2000000000000E+00
(PID.TID 0000.0001) %MON dynstat_theta_min            =  -1.0000000000000E+00
(PID.TID 0000.0001) %MON dynstat_theta_mean           =   5.6548891145851E-01
(PID.TID 0000.0001) %MON dynstat_theta_sd             =   8.4906549719272E-01
(PID.TID 0000.0001) %MON dynstat_theta_del2           =   3.0616871560445E-06
(PID.TID 0000.0001) %MON dynstat_salt_max             =   3.4700000000000E+01
(PID.TID 0000.0001) %MON dynstat_salt_min             =   3.4000000000000E+01
(PID.TID 0000.0001) %MON dynstat_salt_mean            =   3.4498108853247E+01
(PID.TID 0000.0001) %MON dynstat_salt_sd              =   2.7015736185334E-01
(PID.TID 0000.0001) %MON dynstat_salt_del2            =   9.7063121247104E-07
(PID.TID 0000.0001) %MON advcfl_uvel_max              =   1.3673476663776E-04
(PID.TID 0000.0001) %MON advcfl_vvel_max              =   1.5016184201304E-04
(PID.TID 0000.0001) %MON advcfl_wvel_max              =   1.2968626752722E-03
(PID.TID 0000.0001) %MON advcfl_W_hf_max              =   1.2968626752722E-03
(PID.TID 0000.0001) %MON pe_b_mean                    =  -6.8283554520773E-01
(PID.TID 0000.0001) %MON ke_max                       =   1.3804513620963E-06
(PID.TID 0000.0001) %MON ke_mean                      =   6.6899204254034E-09
(PID.TID 0000.0001) %MON ke_vol                       =   4.6182903833535E+12
(PID.TID 0000.0001) // =======================================================
(PID.TID 0000.0001) // End MONITOR dynamic field statistics
(PID.TID 0000.0001) // =======================================================
(PID.TID 0000.0001) // =======================================================
(PID.TID 0000.0001) // Begin OBCS MONITOR field statistics
(PID.TID 0000.0001) // =======================================================
(PID.TID 0000.0001) %MON obc_N_vVel_max               =   4.5115961547778E-05
(PID.TID 0000.0001) %MON obc_N_vVel_min               =   4.5115961547777E-05
(PID.TID 0000.0001) %MON obc_N_vVel_mean              =   4.5115961547777E-05
(PID.TID 0000.0001) %MON obc_N_vVel_sd                =   1.1575977679384E-11
(PID.TID 0000.0001) %MON obc_N_vVel_Int               =   2.9776534621533E+03
(PID.TID 0000.0001) // =======================================================
(PID.TID 0000.0001) // End OBCS MONITOR field statistics
(PID.TID 0000.0001) // =======================================================
 cg2d: Sum(rhs),rhsMax =   3.01193223176784E+00  4.53055289155770E+02
(PID.TID 0000.0001)      cg2d_init_res =   4.52494340721323E-06
(PID.TID 0000.0001)      cg2d_iters(min,last) =      -1      84
(PID.TID 0000.0001)      cg2d_last_res =   9.99891898530734E-12
(PID.TID 0000.0001) // =======================================================
(PID.TID 0000.0001) // Begin MONITOR dynamic field statistics
(PID.TID 0000.0001) // =======================================================
(PID.TID 0000.0001) %MON time_tsnumber                =                    78
(PID.TID 0000.0001) %MON time_secondsf                =   7.8000000000000E+03
(PID.TID 0000.0001) %MON dynstat_eta_max              =   5.7967149793743E+00
(PID.TID 0000.0001) %MON dynstat_eta_min              =  -1.4177263704401E+01
(PID.TID 0000.0001) %MON dynstat_eta_mean             =  -2.5269848670022E+00
(PID.TID 0000.0001) %MON dynstat_eta_sd               =   4.9420136498440E+00
(PID.TID 0000.0001) %MON dynstat_eta_del2             =   1.9058066388727E-01
(PID.TID 0000.0001) %MON dynstat_uvel_max             =   1.3459698590701E-03
(PID.TID 0000.0001) %MON dynstat_uvel_min             =  -1.3962136012973E-03
(PID.TID 0000.0001) %MON dynstat_uvel_mean            =  -6.2679432546012E-07
(PID.TID 0000.0001) %MON dynstat_uvel_sd              =   4.8426275186554E-05
(PID.TID 0000.0001) %MON dynstat_uvel_del2            =   3.0974099600160E-07
(PID.TID 0000.0001) %MON dynstat_vvel_max             =   1.5096479960297E-03
(PID.TID 0000.0001) %MON dynstat_vvel_min             =  -1.1979488122194E-03
(PID.TID 0000.0001) %MON dynstat_vvel_mean            =   7.7851230079262E-05
(PID.TID 0000.0001) %MON dynstat_vvel_sd              =   8.4388116320260E-05
(PID.TID 0000.0001) %MON dynstat_vvel_del2            =   4.2790190623265E-07
(PID.TID 0000.0001) %MON dynstat_wvel_max             =   1.7209227021509E-04
(PID.TID 0000.0001) %MON dynstat_wvel_min             =  -2.5956713040480E-04
(PID.TID 0000.0001) %MON dynstat_wvel_mean            =   1.1592543002983E-07
(PID.TID 0000.0001) %MON dynstat_wvel_sd              =   3.2356784974194E-05
(PID.TID 0000.0001) %MON dynstat_wvel_del2            =   1.8058818313428E-07
(PID.TID 0000.0001) %MON dynstat_theta_max            =   1.2000000000000E+00
(PID.TID 0000.0001) %MON dynstat_theta_min            =  -1.0000000000000E+00
(PID.TID 0000.0001) %MON dynstat_theta_mean           =   5.6548872983053E-01
(PID.TID 0000.0001) %MON dynstat_theta_sd             =   8.4906543803157E-01
(PID.TID 0000.0001) %MON dynstat_theta_del2           =   3.0447924654576E-06
(PID.TID 0000.0001) %MON dynstat_salt_max             =   3.4700000000000E+01
(PID.TID 0000.0001) %MON dynstat_salt_min             =   3.4000000000000E+01
(PID.TID 0000.0001) %MON dynstat_salt_mean            =   3.4498108779642E+01
(PID.TID 0000.0001) %MON dynstat_salt_sd              =   2.7015734474914E-01
(PID.TID 0000.0001) %MON dynstat_salt_del2            =   9.6510856542810E-07
(PID.TID 0000.0001) %MON advcfl_uvel_max              =   1.3962136012973E-04
(PID.TID 0000.0001) %MON advcfl_vvel_max              =   1.5096479960297E-04
(PID.TID 0000.0001) %MON advcfl_wvel_max              =   1.2978356520240E-03
(PID.TID 0000.0001) %MON advcfl_W_hf_max              =   1.2978356520240E-03
(PID.TID 0000.0001) %MON pe_b_mean                    =  -6.8285220375258E-01
(PID.TID 0000.0001) %MON ke_max                       =   1.4075647871328E-06
(PID.TID 0000.0001) %MON ke_mean                      =   7.7286332654392E-09
(PID.TID 0000.0001) %MON ke_vol                       =   4.6182900962980E+12
(PID.TID 0000.0001) // =======================================================
(PID.TID 0000.0001) // End MONITOR dynamic field statistics
(PID.TID 0000.0001) // =======================================================
(PID.TID 0000.0001) // =======================================================
(PID.TID 0000.0001) // Begin OBCS MONITOR field statistics
(PID.TID 0000.0001) // =======================================================
(PID.TID 0000.0001) %MON obc_N_vVel_max               =   6.0169359159667E-05
(PID.TID 0000.0001) %MON obc_N_vVel_min               =   6.0169359159665E-05
(PID.TID 0000.0001) %MON obc_N_vVel_mean              =   6.0169359159667E-05
(PID.TID 0000.0001) %MON obc_N_vVel_sd                =  -1.2945376586455E-22
(PID.TID 0000.0001) %MON obc_N_vVel_Int               =   3.9711777045380E+03
(PID.TID 0000.0001) // =======================================================
(PID.TID 0000.0001) // End OBCS MONITOR field statistics
(PID.TID 0000.0001) // =======================================================
 cg2d: Sum(rhs),rhsMax =   3.01202621826840E+00  4.53055244886743E+02
(PID.TID 0000.0001)      cg2d_init_res =   4.53371216850787E-06
(PID.TID 0000.0001)      cg2d_iters(min,last) =      -1      85
(PID.TID 0000.0001)      cg2d_last_res =   7.47943507898266E-12
(PID.TID 0000.0001) // =======================================================
(PID.TID 0000.0001) // Begin MONITOR dynamic field statistics
(PID.TID 0000.0001) // =======================================================
(PID.TID 0000.0001) %MON time_tsnumber                =                    79
(PID.TID 0000.0001) %MON time_secondsf                =   7.9000000000000E+03
(PID.TID 0000.0001) %MON dynstat_eta_max              =   5.7965698602966E+00
(PID.TID 0000.0001) %MON dynstat_eta_min              =  -1.4177464555943E+01
(PID.TID 0000.0001) %MON dynstat_eta_mean             =  -2.5270634739313E+00
(PID.TID 0000.0001) %MON dynstat_eta_sd               =   4.9420484564016E+00
(PID.TID 0000.0001) %MON dynstat_eta_del2             =   1.9058066212916E-01
(PID.TID 0000.0001) %MON dynstat_uvel_max             =   1.3714137991681E-03
(PID.TID 0000.0001) %MON dynstat_uvel_min             =  -1.4246871468737E-03
(PID.TID 0000.0001) %MON dynstat_uvel_mean            =  -4.6784158278300E-07
(PID.TID 0000.0001) %MON dynstat_uvel_sd              =   4.9044863701895E-05
(PID.TID 0000.0001) %MON dynstat_uvel_del2            =   3.1390001117401E-07
(PID.TID 0000.0001) %MON dynstat_vvel_max             =   1.5154389325200E-03
(PID.TID 0000.0001) %MON dynstat_vvel_min             =  -1.2157065949054E-03
(PID.TID 0000.0001) %MON dynstat_vvel_mean            =   8.8264695613085E-05
(PID.TID 0000.0001) %MON dynstat_vvel_sd              =   8.4670302757711E-05
(PID.TID 0000.0001) %MON dynstat_vvel_del2            =   4.2501591427517E-07
(PID.TID 0000.0001) %MON dynstat_wvel_max             =   1.9368134302831E-04
(PID.TID 0000.0001) %MON dynstat_wvel_min             =  -2.5335100968245E-04
(PID.TID 0000.0001) %MON dynstat_wvel_mean            =   9.0009869631029E-08
(PID.TID 0000.0001) %MON dynstat_wvel_sd              =   3.1909967548533E-05
(PID.TID 0000.0001) %MON dynstat_wvel_del2            =   1.7475230009075E-07
(PID.TID 0000.0001) %MON dynstat_theta_max            =   1.2000000000000E+00
(PID.TID 0000.0001) %MON dynstat_theta_min            =  -1.0000000000000E+00
(PID.TID 0000.0001) %MON dynstat_theta_mean           =   5.6548855426685E-01
(PID.TID 0000.0001) %MON dynstat_theta_sd             =   8.4906537709205E-01
(PID.TID 0000.0001) %MON dynstat_theta_del2           =   3.0284256257482E-06
(PID.TID 0000.0001) %MON dynstat_salt_max             =   3.4700000000000E+01
(PID.TID 0000.0001) %MON dynstat_salt_min             =   3.4000000000000E+01
(PID.TID 0000.0001) %MON dynstat_salt_mean            =   3.4498108707968E+01
(PID.TID 0000.0001) %MON dynstat_salt_sd              =   2.7015732709307E-01
(PID.TID 0000.0001) %MON dynstat_salt_del2            =   9.5975295737581E-07
(PID.TID 0000.0001) %MON advcfl_uvel_max              =   1.4246871468737E-04
(PID.TID 0000.0001) %MON advcfl_vvel_max              =   1.5154389325200E-04
(PID.TID 0000.0001) %MON advcfl_wvel_max              =   1.2667550484122E-03
(PID.TID 0000.0001) %MON advcfl_W_hf_max              =   1.2667550484122E-03
(PID.TID 0000.0001) %MON pe_b_mean                    =  -6.8287090704850E-01
(PID.TID 0000.0001) %MON ke_max                       =   1.4624469687111E-06
(PID.TID 0000.0001) %MON ke_mean                      =   8.6410962520524E-09
(PID.TID 0000.0001) %MON ke_vol                       =   4.6182897098900E+12
(PID.TID 0000.0001) // =======================================================
(PID.TID 0000.0001) // End MONITOR dynamic field statistics
(PID.TID 0000.0001) // =======================================================
(PID.TID 0000.0001) // =======================================================
(PID.TID 0000.0001) // Begin OBCS MONITOR field statistics
(PID.TID 0000.0001) // =======================================================
(PID.TID 0000.0001) %MON obc_N_vVel_max               =   7.2368922284598E-05
(PID.TID 0000.0001) %MON obc_N_vVel_min               =   7.2368922284598E-05
(PID.TID 0000.0001) %MON obc_N_vVel_mean              =   7.2368922284598E-05
(PID.TID 0000.0001) %MON obc_N_vVel_sd                =  -7.6927796967432E-23
(PID.TID 0000.0001) %MON obc_N_vVel_Int               =   4.7763488707835E+03
(PID.TID 0000.0001) // =======================================================
(PID.TID 0000.0001) // End OBCS MONITOR field statistics
(PID.TID 0000.0001) // =======================================================
 cg2d: Sum(rhs),rhsMax =   3.01213245027905E+00  4.53055189448319E+02
(PID.TID 0000.0001)      cg2d_init_res =   4.48810664138144E-06
(PID.TID 0000.0001)      cg2d_iters(min,last) =      -1      84
(PID.TID 0000.0001)      cg2d_last_res =   9.85009325276947E-12
(PID.TID 0000.0001) // =======================================================
(PID.TID 0000.0001) // Begin MONITOR dynamic field statistics
(PID.TID 0000.0001) // =======================================================
(PID.TID 0000.0001) %MON time_tsnumber                =                    80
(PID.TID 0000.0001) %MON time_secondsf                =   8.0000000000000E+03
(PID.TID 0000.0001) %MON dynstat_eta_max              =   5.7964121912459E+00
(PID.TID 0000.0001) %MON dynstat_eta_min              =  -1.4177676821115E+01
(PID.TID 0000.0001) %MON dynstat_eta_mean             =  -2.5271522924159E+00
(PID.TID 0000.0001) %MON dynstat_eta_sd               =   4.9420837856746E+00
(PID.TID 0000.0001) %MON dynstat_eta_del2             =   1.9058066034525E-01
(PID.TID 0000.0001) %MON dynstat_uvel_max             =   1.3963978939362E-03
(PID.TID 0000.0001) %MON dynstat_uvel_min             =  -1.4527800073285E-03
(PID.TID 0000.0001) %MON dynstat_uvel_mean            =  -3.0913136049308E-07
(PID.TID 0000.0001) %MON dynstat_uvel_sd              =   4.9652907264527E-05
(PID.TID 0000.0001) %MON dynstat_uvel_del2            =   3.1794033578240E-07
(PID.TID 0000.0001) %MON dynstat_vvel_max             =   1.5248815435474E-03
(PID.TID 0000.0001) %MON dynstat_vvel_min             =  -1.2356386550660E-03
(PID.TID 0000.0001) %MON dynstat_vvel_mean            =   9.5330309544466E-05
(PID.TID 0000.0001) %MON dynstat_vvel_sd              =   8.4730013964106E-05
(PID.TID 0000.0001) %MON dynstat_vvel_del2            =   4.2246247829555E-07
(PID.TID 0000.0001) %MON dynstat_wvel_max             =   2.1719350786565E-04
(PID.TID 0000.0001) %MON dynstat_wvel_min             =  -2.4111065125613E-04
(PID.TID 0000.0001) %MON dynstat_wvel_mean            =   6.3320478827448E-08
(PID.TID 0000.0001) %MON dynstat_wvel_sd              =   3.1351537822666E-05
(PID.TID 0000.0001) %MON dynstat_wvel_del2            =   1.6831746743946E-07
(PID.TID 0000.0001) %MON dynstat_theta_max            =   1.2000000000000E+00
(PID.TID 0000.0001) %MON dynstat_theta_min            =  -1.0000000000000E+00
(PID.TID 0000.0001) %MON dynstat_theta_mean           =   5.6548838356369E-01
(PID.TID 0000.0001) %MON dynstat_theta_sd             =   8.4906531496937E-01
(PID.TID 0000.0001) %MON dynstat_theta_del2           =   3.0123050205463E-06
(PID.TID 0000.0001) %MON dynstat_salt_max             =   3.4700000000000E+01
(PID.TID 0000.0001) %MON dynstat_salt_min             =   3.4000000000000E+01
(PID.TID 0000.0001) %MON dynstat_salt_mean            =   3.4498108637841E+01
(PID.TID 0000.0001) %MON dynstat_salt_sd              =   2.7015730907268E-01
(PID.TID 0000.0001) %MON dynstat_salt_del2            =   9.5447490476200E-07
(PID.TID 0000.0001) %MON advcfl_uvel_max              =   1.4527800073285E-04
(PID.TID 0000.0001) %MON advcfl_vvel_max              =   1.5248815435474E-04
(PID.TID 0000.0001) %MON advcfl_wvel_max              =   1.2055532562807E-03
(PID.TID 0000.0001) %MON advcfl_W_hf_max              =   1.2055532562807E-03
(PID.TID 0000.0001) %MON pe_b_mean                    =  -6.8289094335042E-01
(PID.TID 0000.0001) %MON ke_max                       =   1.5168318789462E-06
(PID.TID 0000.0001) %MON ke_mean                      =   9.3190652146315E-09
(PID.TID 0000.0001) %MON ke_vol                       =   4.6182892429648E+12
(PID.TID 0000.0001) // =======================================================
(PID.TID 0000.0001) // End MONITOR dynamic field statistics
(PID.TID 0000.0001) // =======================================================
(PID.TID 0000.0001) // =======================================================
(PID.TID 0000.0001) // Begin OBCS MONITOR field statistics
(PID.TID 0000.0001) // =======================================================
(PID.TID 0000.0001) %MON obc_N_vVel_max               =   8.1559315999446E-05
(PID.TID 0000.0001) %MON obc_N_vVel_min               =   8.1559315999442E-05
(PID.TID 0000.0001) %MON obc_N_vVel_mean              =   8.1559315999446E-05
(PID.TID 0000.0001) %MON obc_N_vVel_sd                =  -2.6883369907973E-22
(PID.TID 0000.0001) %MON obc_N_vVel_Int               =   5.3829148559634E+03
(PID.TID 0000.0001) // =======================================================
(PID.TID 0000.0001) // End OBCS MONITOR field statistics
(PID.TID 0000.0001) // =======================================================
 cg2d: Sum(rhs),rhsMax =   3.01224685635659E+00  4.53055124745674E+02
(PID.TID 0000.0001)      cg2d_init_res =   4.39400828714135E-06
(PID.TID 0000.0001)      cg2d_iters(min,last) =      -1      77
(PID.TID 0000.0001)      cg2d_last_res =   9.97500289750953E-12
(PID.TID 0000.0001) // =======================================================
(PID.TID 0000.0001) // Begin MONITOR dynamic field statistics
(PID.TID 0000.0001) // =======================================================
(PID.TID 0000.0001) %MON time_tsnumber                =                    81
(PID.TID 0000.0001) %MON time_secondsf                =   8.1000000000000E+03
(PID.TID 0000.0001) %MON dynstat_eta_max              =   5.7962476184809E+00
(PID.TID 0000.0001) %MON dynstat_eta_min              =  -1.4177893325468E+01
(PID.TID 0000.0001) %MON dynstat_eta_mean             =  -2.5272479171693E+00
(PID.TID 0000.0001) %MON dynstat_eta_sd               =   4.9421185401389E+00
(PID.TID 0000.0001) %MON dynstat_eta_del2             =   1.9058065855837E-01
(PID.TID 0000.0001) %MON dynstat_uvel_max             =   1.4209135748828E-03
(PID.TID 0000.0001) %MON dynstat_uvel_min             =  -1.4805075617463E-03
(PID.TID 0000.0001) %MON dynstat_uvel_mean            =  -1.5532752656973E-07
(PID.TID 0000.0001) %MON dynstat_uvel_sd              =   5.0249136379635E-05
(PID.TID 0000.0001) %MON dynstat_uvel_del2            =   3.2186312798198E-07
(PID.TID 0000.0001) %MON dynstat_vvel_max             =   1.5531816616452E-03
(PID.TID 0000.0001) %MON dynstat_vvel_min             =  -1.2576747360811E-03
(PID.TID 0000.0001) %MON dynstat_vvel_mean            =   9.9080066495131E-05
(PID.TID 0000.0001) %MON dynstat_vvel_sd              =   8.4600373417445E-05
(PID.TID 0000.0001) %MON dynstat_vvel_del2            =   4.2085677606810E-07
(PID.TID 0000.0001) %MON dynstat_wvel_max             =   2.3613735880978E-04
(PID.TID 0000.0001) %MON dynstat_wvel_min             =  -2.2347205531219E-04
(PID.TID 0000.0001) %MON dynstat_wvel_mean            =   3.6703787793512E-08
(PID.TID 0000.0001) %MON dynstat_wvel_sd              =   3.0744922918092E-05
(PID.TID 0000.0001) %MON dynstat_wvel_del2            =   1.6203162171317E-07
(PID.TID 0000.0001) %MON dynstat_theta_max            =   1.2000000000000E+00
(PID.TID 0000.0001) %MON dynstat_theta_min            =  -1.0000000000000E+00
(PID.TID 0000.0001) %MON dynstat_theta_mean           =   5.6548821645870E-01
(PID.TID 0000.0001) %MON dynstat_theta_sd             =   8.4906525227323E-01
(PID.TID 0000.0001) %MON dynstat_theta_del2           =   2.9961402336204E-06
(PID.TID 0000.0001) %MON dynstat_salt_max             =   3.4700000000000E+01
(PID.TID 0000.0001) %MON dynstat_salt_min             =   3.4000000000000E+01
(PID.TID 0000.0001) %MON dynstat_salt_mean            =   3.4498108568859E+01
(PID.TID 0000.0001) %MON dynstat_salt_sd              =   2.7015729087994E-01
(PID.TID 0000.0001) %MON dynstat_salt_del2            =   9.4918170380379E-07
(PID.TID 0000.0001) %MON advcfl_uvel_max              =   1.4805075617463E-04
(PID.TID 0000.0001) %MON advcfl_vvel_max              =   1.5531816616452E-04
(PID.TID 0000.0001) %MON advcfl_wvel_max              =   1.1806867940489E-03
(PID.TID 0000.0001) %MON advcfl_W_hf_max              =   1.1806867940489E-03
(PID.TID 0000.0001) %MON pe_b_mean                    =  -6.8291161269433E-01
(PID.TID 0000.0001) %MON ke_max                       =   1.5706583920347E-06
(PID.TID 0000.0001) %MON ke_mean                      =   9.6980566119560E-09
(PID.TID 0000.0001) %MON ke_vol                       =   4.6182887153830E+12
(PID.TID 0000.0001) // =======================================================
(PID.TID 0000.0001) // End MONITOR dynamic field statistics
(PID.TID 0000.0001) // =======================================================
(PID.TID 0000.0001) // =======================================================
(PID.TID 0000.0001) // Begin OBCS MONITOR field statistics
(PID.TID 0000.0001) // =======================================================
(PID.TID 0000.0001) %MON obc_N_vVel_max               =   8.7684951514438E-05
(PID.TID 0000.0001) %MON obc_N_vVel_min               =   8.7684951514437E-05
(PID.TID 0000.0001) %MON obc_N_vVel_mean              =   8.7684951514438E-05
(PID.TID 0000.0001) %MON obc_N_vVel_sd                =  -2.9282193684377E-22
(PID.TID 0000.0001) %MON obc_N_vVel_Int               =   5.7872067999529E+03
(PID.TID 0000.0001) // =======================================================
(PID.TID 0000.0001) // End OBCS MONITOR field statistics
(PID.TID 0000.0001) // =======================================================
 cg2d: Sum(rhs),rhsMax =   3.01236541606927E+00  4.53055052789495E+02
(PID.TID 0000.0001)      cg2d_init_res =   4.26203792198084E-06
(PID.TID 0000.0001)      cg2d_iters(min,last) =      -1      77
(PID.TID 0000.0001)      cg2d_last_res =   8.93505466516397E-12
(PID.TID 0000.0001) // =======================================================
(PID.TID 0000.0001) // Begin MONITOR dynamic field statistics
(PID.TID 0000.0001) // =======================================================
(PID.TID 0000.0001) %MON time_tsnumber                =                    82
(PID.TID 0000.0001) %MON time_secondsf                =   8.2000000000000E+03
(PID.TID 0000.0001) %MON dynstat_eta_max              =   5.7960815830057E+00
(PID.TID 0000.0001) %MON dynstat_eta_min              =  -1.4178107284898E+01
(PID.TID 0000.0001) %MON dynstat_eta_mean             =  -2.5273469862935E+00
(PID.TID 0000.0001) %MON dynstat_eta_sd               =   4.9421517182316E+00
(PID.TID 0000.0001) %MON dynstat_eta_del2             =   1.9058065679112E-01
(PID.TID 0000.0001) %MON dynstat_uvel_max             =   1.4449599957498E-03
(PID.TID 0000.0001) %MON dynstat_uvel_min             =  -1.5078877237533E-03
(PID.TID 0000.0001) %MON dynstat_uvel_mean            =  -1.0255808729856E-08
(PID.TID 0000.0001) %MON dynstat_uvel_sd              =   5.0832528775683E-05
(PID.TID 0000.0001) %MON dynstat_uvel_del2            =   3.2566966179449E-07
(PID.TID 0000.0001) %MON dynstat_vvel_max             =   1.5788509859878E-03
(PID.TID 0000.0001) %MON dynstat_vvel_min             =  -1.2816788538590E-03
(PID.TID 0000.0001) %MON dynstat_vvel_mean            =   9.9641320665119E-05
(PID.TID 0000.0001) %MON dynstat_vvel_sd              =   8.4335855579997E-05
(PID.TID 0000.0001) %MON dynstat_vvel_del2            =   4.2069051243799E-07
(PID.TID 0000.0001) %MON dynstat_wvel_max             =   2.5002865333998E-04
(PID.TID 0000.0001) %MON dynstat_wvel_min             =  -2.0130751844789E-04
(PID.TID 0000.0001) %MON dynstat_wvel_mean            =   1.0940027818366E-08
(PID.TID 0000.0001) %MON dynstat_wvel_sd              =   3.0159389212386E-05
(PID.TID 0000.0001) %MON dynstat_wvel_del2            =   1.5668113704978E-07
(PID.TID 0000.0001) %MON dynstat_theta_max            =   1.2000000000000E+00
(PID.TID 0000.0001) %MON dynstat_theta_min            =  -1.0000000000000E+00
(PID.TID 0000.0001) %MON dynstat_theta_mean           =   5.6548805167166E-01
(PID.TID 0000.0001) %MON dynstat_theta_sd             =   8.4906518968572E-01
(PID.TID 0000.0001) %MON dynstat_theta_del2           =   2.9796728940572E-06
(PID.TID 0000.0001) %MON dynstat_salt_max             =   3.4700000000000E+01
(PID.TID 0000.0001) %MON dynstat_salt_min             =   3.4000000000000E+01
(PID.TID 0000.0001) %MON dynstat_salt_mean            =   3.4498108500614E+01
(PID.TID 0000.0001) %MON dynstat_salt_sd              =   2.7015727272937E-01
(PID.TID 0000.0001) %MON dynstat_salt_del2            =   9.4379082158890E-07
(PID.TID 0000.0001) %MON advcfl_uvel_max              =   1.5078877237533E-04
(PID.TID 0000.0001) %MON advcfl_vvel_max              =   1.5788509859878E-04
(PID.TID 0000.0001) %MON advcfl_wvel_max              =   1.2501432666999E-03
(PID.TID 0000.0001) %MON advcfl_W_hf_max              =   1.2501432666999E-03
(PID.TID 0000.0001) %MON pe_b_mean                    =  -6.8293224665686E-01
(PID.TID 0000.0001) %MON ke_max                       =   1.6239017822226E-06
(PID.TID 0000.0001) %MON ke_mean                      =   9.7584212771660E-09
(PID.TID 0000.0001) %MON ke_vol                       =   4.6182881473720E+12
(PID.TID 0000.0001) // =======================================================
(PID.TID 0000.0001) // End MONITOR dynamic field statistics
(PID.TID 0000.0001) // =======================================================
(PID.TID 0000.0001) // =======================================================
(PID.TID 0000.0001) // Begin OBCS MONITOR field statistics
(PID.TID 0000.0001) // =======================================================
(PID.TID 0000.0001) %MON obc_N_vVel_max               =   9.0784879138489E-05
(PID.TID 0000.0001) %MON obc_N_vVel_min               =   9.0784879138488E-05
(PID.TID 0000.0001) %MON obc_N_vVel_mean              =   9.0784879138488E-05
(PID.TID 0000.0001) %MON obc_N_vVel_sd                =  -2.7958704704292E-22
(PID.TID 0000.0001) %MON obc_N_vVel_Int               =   5.9918020231402E+03
(PID.TID 0000.0001) // =======================================================
(PID.TID 0000.0001) // End OBCS MONITOR field statistics
(PID.TID 0000.0001) // =======================================================
 cg2d: Sum(rhs),rhsMax =   3.01248427548904E+00  4.53054975637949E+02
(PID.TID 0000.0001)      cg2d_init_res =   4.10645692545357E-06
(PID.TID 0000.0001)      cg2d_iters(min,last) =      -1      77
(PID.TID 0000.0001)      cg2d_last_res =   8.74922890627063E-12
(PID.TID 0000.0001) // =======================================================
(PID.TID 0000.0001) // Begin MONITOR dynamic field statistics
(PID.TID 0000.0001) // =======================================================
(PID.TID 0000.0001) %MON time_tsnumber                =                    83
(PID.TID 0000.0001) %MON time_secondsf                =   8.3000000000000E+03
(PID.TID 0000.0001) %MON dynstat_eta_max              =   5.7959191655601E+00
(PID.TID 0000.0001) %MON dynstat_eta_min              =  -1.4178312471764E+01
(PID.TID 0000.0001) %MON dynstat_eta_mean             =  -2.5274462778544E+00
(PID.TID 0000.0001) %MON dynstat_eta_sd               =   4.9421824370837E+00
(PID.TID 0000.0001) %MON dynstat_eta_del2             =   1.9058065506292E-01
(PID.TID 0000.0001) %MON dynstat_uvel_max             =   1.4685426291496E-03
(PID.TID 0000.0001) %MON dynstat_uvel_min             =  -1.5349398756346E-03
(PID.TID 0000.0001) %MON dynstat_uvel_mean            =   1.2302366853440E-07
(PID.TID 0000.0001) %MON dynstat_uvel_sd              =   5.1402273431588E-05
(PID.TID 0000.0001) %MON dynstat_uvel_del2            =   3.2936135018219E-07
(PID.TID 0000.0001) %MON dynstat_vvel_max             =   1.6020883168366E-03
(PID.TID 0000.0001) %MON dynstat_vvel_min             =  -1.3074585527786E-03
(PID.TID 0000.0001) %MON dynstat_vvel_mean            =   9.7226119367493E-05
(PID.TID 0000.0001) %MON dynstat_vvel_sd              =   8.4003528671683E-05
(PID.TID 0000.0001) %MON dynstat_vvel_del2            =   4.2226173823134E-07
(PID.TID 0000.0001) %MON dynstat_wvel_max             =   2.5852689937662E-04
(PID.TID 0000.0001) %MON dynstat_wvel_min             =  -1.7514001865855E-04
(PID.TID 0000.0001) %MON dynstat_wvel_mean            =  -1.3276835628289E-08
(PID.TID 0000.0001) %MON dynstat_wvel_sd              =   2.9661498803717E-05
(PID.TID 0000.0001) %MON dynstat_wvel_del2            =   1.5297383509239E-07
(PID.TID 0000.0001) %MON dynstat_theta_max            =   1.2000000000000E+00
(PID.TID 0000.0001) %MON dynstat_theta_min            =  -1.0000000000000E+00
(PID.TID 0000.0001) %MON dynstat_theta_mean           =   5.6548788794389E-01
(PID.TID 0000.0001) %MON dynstat_theta_sd             =   8.4906512767412E-01
(PID.TID 0000.0001) %MON dynstat_theta_del2           =   2.9627024347036E-06
(PID.TID 0000.0001) %MON dynstat_salt_max             =   3.4700000000000E+01
(PID.TID 0000.0001) %MON dynstat_salt_min             =   3.4000000000000E+01
(PID.TID 0000.0001) %MON dynstat_salt_mean            =   3.4498108432708E+01
(PID.TID 0000.0001) %MON dynstat_salt_sd              =   2.7015725476724E-01
(PID.TID 0000.0001) %MON dynstat_salt_del2            =   9.3823815302205E-07
(PID.TID 0000.0001) %MON advcfl_uvel_max              =   1.5349398756346E-04
(PID.TID 0000.0001) %MON advcfl_vvel_max              =   1.6020883168366E-04
(PID.TID 0000.0001) %MON advcfl_wvel_max              =   1.2926344968831E-03
(PID.TID 0000.0001) %MON advcfl_W_hf_max              =   1.2926344968831E-03
(PID.TID 0000.0001) %MON pe_b_mean                    =  -6.8295222576493E-01
(PID.TID 0000.0001) %MON ke_max                       =   1.6765703538064E-06
(PID.TID 0000.0001) %MON ke_mean                      =   9.5211748059638E-09
(PID.TID 0000.0001) %MON ke_vol                       =   4.6182875589014E+12
(PID.TID 0000.0001) // =======================================================
(PID.TID 0000.0001) // End MONITOR dynamic field statistics
(PID.TID 0000.0001) // =======================================================
(PID.TID 0000.0001) // =======================================================
(PID.TID 0000.0001) // Begin OBCS MONITOR field statistics
(PID.TID 0000.0001) // =======================================================
(PID.TID 0000.0001) %MON obc_N_vVel_max               =   9.0985065844278E-05
(PID.TID 0000.0001) %MON obc_N_vVel_min               =   9.0985065844276E-05
(PID.TID 0000.0001) %MON obc_N_vVel_mean              =   9.0985065844278E-05
(PID.TID 0000.0001) %MON obc_N_vVel_sd                =  -1.2076836943274E-22
(PID.TID 0000.0001) %MON obc_N_vVel_Int               =   6.0050143457223E+03
(PID.TID 0000.0001) // =======================================================
(PID.TID 0000.0001) // End OBCS MONITOR field statistics
(PID.TID 0000.0001) // =======================================================
 cg2d: Sum(rhs),rhsMax =   3.01259984935626E+00  4.53054895333278E+02
(PID.TID 0000.0001)      cg2d_init_res =   3.94375567940817E-06
(PID.TID 0000.0001)      cg2d_iters(min,last) =      -1      78
(PID.TID 0000.0001)      cg2d_last_res =   9.56280644051268E-12
(PID.TID 0000.0001) // =======================================================
(PID.TID 0000.0001) // Begin MONITOR dynamic field statistics
(PID.TID 0000.0001) // =======================================================
(PID.TID 0000.0001) %MON time_tsnumber                =                    84
(PID.TID 0000.0001) %MON time_secondsf                =   8.4000000000000E+03
(PID.TID 0000.0001) %MON dynstat_eta_max              =   5.7957649640331E+00
(PID.TID 0000.0001) %MON dynstat_eta_min              =  -1.4178503352686E+01
(PID.TID 0000.0001) %MON dynstat_eta_mean             =  -2.5275427952429E+00
(PID.TID 0000.0001) %MON dynstat_eta_sd               =   4.9422099498020E+00
(PID.TID 0000.0001) %MON dynstat_eta_del2             =   1.9058065339261E-01
(PID.TID 0000.0001) %MON dynstat_uvel_max             =   1.4916717328042E-03
(PID.TID 0000.0001) %MON dynstat_uvel_min             =  -1.5616841822013E-03
(PID.TID 0000.0001) %MON dynstat_uvel_mean            =   2.4214633426864E-07
(PID.TID 0000.0001) %MON dynstat_uvel_sd              =   5.1957741601142E-05
(PID.TID 0000.0001) %MON dynstat_uvel_del2            =   3.3293976938831E-07
(PID.TID 0000.0001) %MON dynstat_vvel_max             =   1.6231413698584E-03
(PID.TID 0000.0001) %MON dynstat_vvel_min             =  -1.3347747024834E-03
(PID.TID 0000.0001) %MON dynstat_vvel_mean            =   9.2118878809021E-05
(PID.TID 0000.0001) %MON dynstat_vvel_sd              =   8.3673381249937E-05
(PID.TID 0000.0001) %MON dynstat_vvel_del2            =   4.2563315217135E-07
(PID.TID 0000.0001) %MON dynstat_wvel_max             =   2.6141681290798E-04
(PID.TID 0000.0001) %MON dynstat_wvel_min             =  -1.8224701327341E-04
(PID.TID 0000.0001) %MON dynstat_wvel_mean            =  -3.5352852155248E-08
(PID.TID 0000.0001) %MON dynstat_wvel_sd              =   2.9305718684244E-05
(PID.TID 0000.0001) %MON dynstat_wvel_del2            =   1.5139636768459E-07
(PID.TID 0000.0001) %MON dynstat_theta_max            =   1.2000000000000E+00
(PID.TID 0000.0001) %MON dynstat_theta_min            =  -1.0000000000000E+00
(PID.TID 0000.0001) %MON dynstat_theta_mean           =   5.6548772407477E-01
(PID.TID 0000.0001) %MON dynstat_theta_sd             =   8.4906506670829E-01
(PID.TID 0000.0001) %MON dynstat_theta_del2           =   2.9451104099731E-06
(PID.TID 0000.0001) %MON dynstat_salt_max             =   3.4700000000000E+01
(PID.TID 0000.0001) %MON dynstat_salt_min             =   3.4000000000000E+01
(PID.TID 0000.0001) %MON dynstat_salt_mean            =   3.4498108364757E+01
(PID.TID 0000.0001) %MON dynstat_salt_sd              =   2.7015723714081E-01
(PID.TID 0000.0001) %MON dynstat_salt_del2            =   9.3248582306115E-07
(PID.TID 0000.0001) %MON advcfl_uvel_max              =   1.5616841822013E-04
(PID.TID 0000.0001) %MON advcfl_vvel_max              =   1.6231413698584E-04
(PID.TID 0000.0001) %MON advcfl_wvel_max              =   1.3070840645399E-03
(PID.TID 0000.0001) %MON advcfl_W_hf_max              =   1.3070840645399E-03
(PID.TID 0000.0001) %MON pe_b_mean                    =  -6.8297099419538E-01
(PID.TID 0000.0001) %MON ke_max                       =   1.7287015530388E-06
(PID.TID 0000.0001) %MON ke_mean                      =   9.0397868481516E-09
(PID.TID 0000.0001) %MON ke_vol                       =   4.6182869691095E+12
(PID.TID 0000.0001) // =======================================================
(PID.TID 0000.0001) // End MONITOR dynamic field statistics
(PID.TID 0000.0001) // =======================================================
(PID.TID 0000.0001) // =======================================================
(PID.TID 0000.0001) // Begin OBCS MONITOR field statistics
(PID.TID 0000.0001) // =======================================================
(PID.TID 0000.0001) %MON obc_N_vVel_max               =   8.8488304446395E-05
(PID.TID 0000.0001) %MON obc_N_vVel_min               =   8.8488304446394E-05
(PID.TID 0000.0001) %MON obc_N_vVel_mean              =   8.8488304446394E-05
(PID.TID 0000.0001) %MON obc_N_vVel_sd                =  -8.6026783705515E-23
(PID.TID 0000.0001) %MON obc_N_vVel_Int               =   5.8402280934620E+03
(PID.TID 0000.0001) // =======================================================
(PID.TID 0000.0001) // End OBCS MONITOR field statistics
(PID.TID 0000.0001) // =======================================================
 cg2d: Sum(rhs),rhsMax =   3.01270890742874E+00  4.53054813844359E+02
(PID.TID 0000.0001)      cg2d_init_res =   3.79124728487791E-06
(PID.TID 0000.0001)      cg2d_iters(min,last) =      -1      84
(PID.TID 0000.0001)      cg2d_last_res =   8.16524196736488E-12
(PID.TID 0000.0001) // =======================================================
(PID.TID 0000.0001) // Begin MONITOR dynamic field statistics
(PID.TID 0000.0001) // =======================================================
(PID.TID 0000.0001) %MON time_tsnumber                =                    85
(PID.TID 0000.0001) %MON time_secondsf                =   8.5000000000000E+03
(PID.TID 0000.0001) %MON dynstat_eta_max              =   5.7956229855415E+00
(PID.TID 0000.0001) %MON dynstat_eta_min              =  -1.4178675205846E+01
(PID.TID 0000.0001) %MON dynstat_eta_mean             =  -2.5276338393007E+00
(PID.TID 0000.0001) %MON dynstat_eta_sd               =   4.9422336574389E+00
(PID.TID 0000.0001) %MON dynstat_eta_del2             =   1.9058065179469E-01
(PID.TID 0000.0001) %MON dynstat_uvel_max             =   1.5143612734629E-03
(PID.TID 0000.0001) %MON dynstat_uvel_min             =  -1.5881411296119E-03
(PID.TID 0000.0001) %MON dynstat_uvel_mean            =   3.4536785916460E-07
(PID.TID 0000.0001) %MON dynstat_uvel_sd              =   5.2498468602340E-05
(PID.TID 0000.0001) %MON dynstat_uvel_del2            =   3.3640668524707E-07
(PID.TID 0000.0001) %MON dynstat_vvel_max             =   1.6422964830252E-03
(PID.TID 0000.0001) %MON dynstat_vvel_min             =  -1.3633514664839E-03
(PID.TID 0000.0001) %MON dynstat_vvel_mean            =   8.4662842565947E-05
(PID.TID 0000.0001) %MON dynstat_vvel_sd              =   8.3408777597799E-05
(PID.TID 0000.0001) %MON dynstat_vvel_del2            =   4.3062943719043E-07
(PID.TID 0000.0001) %MON dynstat_wvel_max             =   2.6137466259154E-04
(PID.TID 0000.0001) %MON dynstat_wvel_min             =  -1.8822486904212E-04
(PID.TID 0000.0001) %MON dynstat_wvel_mean            =  -5.4800841489968E-08
(PID.TID 0000.0001) %MON dynstat_wvel_sd              =   2.9125868499543E-05
(PID.TID 0000.0001) %MON dynstat_wvel_del2            =   1.5209445614341E-07
(PID.TID 0000.0001) %MON dynstat_theta_max            =   1.2000000000000E+00
(PID.TID 0000.0001) %MON dynstat_theta_min            =  -1.0000000000000E+00
(PID.TID 0000.0001) %MON dynstat_theta_mean           =   5.6548755895445E-01
(PID.TID 0000.0001) %MON dynstat_theta_sd             =   8.4906500722329E-01
(PID.TID 0000.0001) %MON dynstat_theta_del2           =   2.9268742022981E-06
(PID.TID 0000.0001) %MON dynstat_salt_max             =   3.4700000000000E+01
(PID.TID 0000.0001) %MON dynstat_salt_min             =   3.4000000000000E+01
(PID.TID 0000.0001) %MON dynstat_salt_mean            =   3.4498108296408E+01
(PID.TID 0000.0001) %MON dynstat_salt_sd              =   2.7015721998649E-01
(PID.TID 0000.0001) %MON dynstat_salt_del2            =   9.2652655729178E-07
(PID.TID 0000.0001) %MON advcfl_uvel_max              =   1.5881411296119E-04
(PID.TID 0000.0001) %MON advcfl_vvel_max              =   1.6422964830252E-04
(PID.TID 0000.0001) %MON advcfl_wvel_max              =   1.3068733129577E-03
(PID.TID 0000.0001) %MON advcfl_W_hf_max              =   1.3068733129577E-03
(PID.TID 0000.0001) %MON pe_b_mean                    =  -6.8298807155056E-01
(PID.TID 0000.0001) %MON ke_max                       =   1.7803571214533E-06
(PID.TID 0000.0001) %MON ke_mean                      =   8.3894268309177E-09
(PID.TID 0000.0001) %MON ke_vol                       =   4.6182863957963E+12
(PID.TID 0000.0001) // =======================================================
(PID.TID 0000.0001) // End MONITOR dynamic field statistics
(PID.TID 0000.0001) // =======================================================
(PID.TID 0000.0001) // =======================================================
(PID.TID 0000.0001) // Begin OBCS MONITOR field statistics
(PID.TID 0000.0001) // =======================================================
(PID.TID 0000.0001) %MON obc_N_vVel_max               =   8.3562300667723E-05
(PID.TID 0000.0001) %MON obc_N_vVel_min               =   8.3562300667722E-05
(PID.TID 0000.0001) %MON obc_N_vVel_mean              =   8.3562300667722E-05
(PID.TID 0000.0001) %MON obc_N_vVel_sd                =  -3.6395946952333E-23
(PID.TID 0000.0001) %MON obc_N_vVel_Int               =   5.5151118440697E+03
(PID.TID 0000.0001) // =======================================================
(PID.TID 0000.0001) // End OBCS MONITOR field statistics
(PID.TID 0000.0001) // =======================================================
 cg2d: Sum(rhs),rhsMax =   3.01280864382279E+00  4.53054733014358E+02
(PID.TID 0000.0001)      cg2d_init_res =   3.66470237794135E-06
(PID.TID 0000.0001)      cg2d_iters(min,last) =      -1      84
(PID.TID 0000.0001)      cg2d_last_res =   7.97703396068376E-12
(PID.TID 0000.0001) // =======================================================
(PID.TID 0000.0001) // Begin MONITOR dynamic field statistics
(PID.TID 0000.0001) // =======================================================
(PID.TID 0000.0001) %MON time_tsnumber                =                    86
(PID.TID 0000.0001) %MON time_secondsf                =   8.6000000000000E+03
(PID.TID 0000.0001) %MON dynstat_eta_max              =   5.7954965819024E+00
(PID.TID 0000.0001) %MON dynstat_eta_min              =  -1.4178824201869E+01
(PID.TID 0000.0001) %MON dynstat_eta_mean             =  -2.5277170662046E+00
(PID.TID 0000.0001) %MON dynstat_eta_sd               =   4.9422531159000E+00
(PID.TID 0000.0001) %MON dynstat_eta_del2             =   1.9058065028156E-01
(PID.TID 0000.0001) %MON dynstat_uvel_max             =   1.5366281258835E-03
(PID.TID 0000.0001) %MON dynstat_uvel_min             =  -1.6143311156336E-03
(PID.TID 0000.0001) %MON dynstat_uvel_mean            =   4.3145937242166E-07
(PID.TID 0000.0001) %MON dynstat_uvel_sd              =   5.3024143384764E-05
(PID.TID 0000.0001) %MON dynstat_uvel_del2            =   3.3976407604764E-07
(PID.TID 0000.0001) %MON dynstat_vvel_max             =   1.6598678508277E-03
(PID.TID 0000.0001) %MON dynstat_vvel_min             =  -1.3928865188220E-03
(PID.TID 0000.0001) %MON dynstat_vvel_mean            =   7.5245774688654E-05
(PID.TID 0000.0001) %MON dynstat_vvel_sd              =   8.3258272171966E-05
(PID.TID 0000.0001) %MON dynstat_vvel_del2            =   4.3687381443359E-07
(PID.TID 0000.0001) %MON dynstat_wvel_max             =   2.5868376366502E-04
(PID.TID 0000.0001) %MON dynstat_wvel_min             =  -1.9535632162068E-04
(PID.TID 0000.0001) %MON dynstat_wvel_mean            =  -7.1244293253598E-08
(PID.TID 0000.0001) %MON dynstat_wvel_sd              =   2.9129689855243E-05
(PID.TID 0000.0001) %MON dynstat_wvel_del2            =   1.5483738605168E-07
(PID.TID 0000.0001) %MON dynstat_theta_max            =   1.2000000000000E+00
(PID.TID 0000.0001) %MON dynstat_theta_min            =  -1.0000000000000E+00
(PID.TID 0000.0001) %MON dynstat_theta_mean           =   5.6548739159078E-01
(PID.TID 0000.0001) %MON dynstat_theta_sd             =   8.4906494960464E-01
(PID.TID 0000.0001) %MON dynstat_theta_del2           =   2.9080663705723E-06
(PID.TID 0000.0001) %MON dynstat_salt_max             =   3.4700000000000E+01
(PID.TID 0000.0001) %MON dynstat_salt_min             =   3.4000000000000E+01
(PID.TID 0000.0001) %MON dynstat_salt_mean            =   3.4498108227346E+01
(PID.TID 0000.0001) %MON dynstat_salt_sd              =   2.7015720342521E-01
(PID.TID 0000.0001) %MON dynstat_salt_del2            =   9.2038351797962E-07
(PID.TID 0000.0001) %MON advcfl_uvel_max              =   1.6143311156336E-04
(PID.TID 0000.0001) %MON advcfl_vvel_max              =   1.6598678508277E-04
(PID.TID 0000.0001) %MON advcfl_wvel_max              =   1.2934188183251E-03
(PID.TID 0000.0001) %MON advcfl_W_hf_max              =   1.2934188183251E-03
(PID.TID 0000.0001) %MON pe_b_mean                    =  -6.8300306158565E-01
(PID.TID 0000.0001) %MON ke_max                       =   1.8316179420644E-06
(PID.TID 0000.0001) %MON ke_mean                      =   7.6552457727068E-09
(PID.TID 0000.0001) %MON ke_vol                       =   4.6182858549946E+12
(PID.TID 0000.0001) // =======================================================
(PID.TID 0000.0001) // End MONITOR dynamic field statistics
(PID.TID 0000.0001) // =======================================================
(PID.TID 0000.0001) // =======================================================
(PID.TID 0000.0001) // Begin OBCS MONITOR field statistics
(PID.TID 0000.0001) // =======================================================
(PID.TID 0000.0001) %MON obc_N_vVel_max               =   7.6526855963456E-05
(PID.TID 0000.0001) %MON obc_N_vVel_min               =   7.6526855963455E-05
(PID.TID 0000.0001) %MON obc_N_vVel_mean              =   7.6526855963455E-05
(PID.TID 0000.0001) %MON obc_N_vVel_sd                =  -1.4062070413401E-22
(PID.TID 0000.0001) %MON obc_N_vVel_Int               =   5.0507724935880E+03
(PID.TID 0000.0001) // =======================================================
(PID.TID 0000.0001) // End OBCS MONITOR field statistics
(PID.TID 0000.0001) // =======================================================
 cg2d: Sum(rhs),rhsMax =   3.01289672877146E+00  4.53054654513159E+02
(PID.TID 0000.0001)      cg2d_init_res =   3.57572354425864E-06
(PID.TID 0000.0001)      cg2d_iters(min,last) =      -1      84
(PID.TID 0000.0001)      cg2d_last_res =   7.41546713926869E-12
(PID.TID 0000.0001) // =======================================================
(PID.TID 0000.0001) // Begin MONITOR dynamic field statistics
(PID.TID 0000.0001) // =======================================================
(PID.TID 0000.0001) %MON time_tsnumber                =                    87
(PID.TID 0000.0001) %MON time_secondsf                =   8.7000000000000E+03
(PID.TID 0000.0001) %MON dynstat_eta_max              =   5.7953883946085E+00
(PID.TID 0000.0001) %MON dynstat_eta_min              =  -1.4178947456566E+01
(PID.TID 0000.0001) %MON dynstat_eta_mean             =  -2.5277905306248E+00
(PID.TID 0000.0001) %MON dynstat_eta_sd               =   4.9422680378515E+00
(PID.TID 0000.0001) %MON dynstat_eta_del2             =   1.9058064886312E-01
(PID.TID 0000.0001) %MON dynstat_uvel_max             =   1.5584915016031E-03
(PID.TID 0000.0001) %MON dynstat_uvel_min             =  -1.6402741392350E-03
(PID.TID 0000.0001) %MON dynstat_uvel_mean            =   4.9966157738999E-07
(PID.TID 0000.0001) %MON dynstat_uvel_sd              =   5.3534606709233E-05
(PID.TID 0000.0001) %MON dynstat_uvel_del2            =   3.4301414916241E-07
(PID.TID 0000.0001) %MON dynstat_vvel_max             =   1.6761869231328E-03
(PID.TID 0000.0001) %MON dynstat_vvel_min             =  -1.4230611856743E-03
(PID.TID 0000.0001) %MON dynstat_vvel_mean            =   6.4285365904380E-05
(PID.TID 0000.0001) %MON dynstat_vvel_sd              =   8.3249980443426E-05
(PID.TID 0000.0001) %MON dynstat_vvel_del2            =   4.4385323804927E-07
(PID.TID 0000.0001) %MON dynstat_wvel_max             =   2.5024102061017E-04
(PID.TID 0000.0001) %MON dynstat_wvel_min             =  -1.9960970915455E-04
(PID.TID 0000.0001) %MON dynstat_wvel_mean            =  -8.4419106807221E-08
(PID.TID 0000.0001) %MON dynstat_wvel_sd              =   2.9298346579742E-05
(PID.TID 0000.0001) %MON dynstat_wvel_del2            =   1.5908963670723E-07
(PID.TID 0000.0001) %MON dynstat_theta_max            =   1.2000000000000E+00
(PID.TID 0000.0001) %MON dynstat_theta_min            =  -1.0000000000000E+00
(PID.TID 0000.0001) %MON dynstat_theta_mean           =   5.6548722113034E-01
(PID.TID 0000.0001) %MON dynstat_theta_sd             =   8.4906489407641E-01
(PID.TID 0000.0001) %MON dynstat_theta_del2           =   2.8888414482562E-06
(PID.TID 0000.0001) %MON dynstat_salt_max             =   3.4700000000000E+01
(PID.TID 0000.0001) %MON dynstat_salt_min             =   3.4000000000000E+01
(PID.TID 0000.0001) %MON dynstat_salt_mean            =   3.4498108157298E+01
(PID.TID 0000.0001) %MON dynstat_salt_sd              =   2.7015718752673E-01
(PID.TID 0000.0001) %MON dynstat_salt_del2            =   9.1410611583518E-07
(PID.TID 0000.0001) %MON advcfl_uvel_max              =   1.6402741392350E-04
(PID.TID 0000.0001) %MON advcfl_vvel_max              =   1.6761869231328E-04
(PID.TID 0000.0001) %MON advcfl_wvel_max              =   1.2512051030508E-03
(PID.TID 0000.0001) %MON advcfl_W_hf_max              =   1.2512051030508E-03
(PID.TID 0000.0001) %MON pe_b_mean                    =  -6.8301565784997E-01
(PID.TID 0000.0001) %MON ke_max                       =   1.8825781187483E-06
(PID.TID 0000.0001) %MON ke_mean                      =   6.9211675853564E-09
(PID.TID 0000.0001) %MON ke_vol                       =   4.6182853606267E+12
(PID.TID 0000.0001) // =======================================================
(PID.TID 0000.0001) // End MONITOR dynamic field statistics
(PID.TID 0000.0001) // =======================================================
(PID.TID 0000.0001) // =======================================================
(PID.TID 0000.0001) // Begin OBCS MONITOR field statistics
(PID.TID 0000.0001) // =======================================================
(PID.TID 0000.0001) %MON obc_N_vVel_max               =   6.7740614402004E-05
(PID.TID 0000.0001) %MON obc_N_vVel_min               =   6.7740614402002E-05
(PID.TID 0000.0001) %MON obc_N_vVel_mean              =   6.7740614402002E-05
(PID.TID 0000.0001) %MON obc_N_vVel_sd                =   1.3612070276482E-11
(PID.TID 0000.0001) %MON obc_N_vVel_Int               =   4.4708805505321E+03
(PID.TID 0000.0001) // =======================================================
(PID.TID 0000.0001) // End OBCS MONITOR field statistics
(PID.TID 0000.0001) // =======================================================
 cg2d: Sum(rhs),rhsMax =   3.01297134263277E+00  4.53054579805496E+02
(PID.TID 0000.0001)      cg2d_init_res =   3.52950205063854E-06
(PID.TID 0000.0001)      cg2d_iters(min,last) =      -1      83
(PID.TID 0000.0001)      cg2d_last_res =   9.51508491606824E-12
(PID.TID 0000.0001) // =======================================================
(PID.TID 0000.0001) // Begin MONITOR dynamic field statistics
(PID.TID 0000.0001) // =======================================================
(PID.TID 0000.0001) %MON time_tsnumber                =                    88
(PID.TID 0000.0001) %MON time_secondsf                =   8.8000000000000E+03
(PID.TID 0000.0001) %MON dynstat_eta_max              =   5.7953003372541E+00
(PID.TID 0000.0001) %MON dynstat_eta_min              =  -1.4179043049844E+01
(PID.TID 0000.0001) %MON dynstat_eta_mean             =  -2.5278527140787E+00
(PID.TID 0000.0001) %MON dynstat_eta_sd               =   4.9422782899339E+00
(PID.TID 0000.0001) %MON dynstat_eta_del2             =   1.9058064754610E-01
(PID.TID 0000.0001) %MON dynstat_uvel_max             =   1.5799724214567E-03
(PID.TID 0000.0001) %MON dynstat_uvel_min             =  -1.6659893677682E-03
(PID.TID 0000.0001) %MON dynstat_uvel_mean            =   5.4961271846066E-07
(PID.TID 0000.0001) %MON dynstat_uvel_sd              =   5.4029846510833E-05
(PID.TID 0000.0001) %MON dynstat_uvel_del2            =   3.4615934845350E-07
(PID.TID 0000.0001) %MON dynstat_vvel_max             =   1.6915915622526E-03
(PID.TID 0000.0001) %MON dynstat_vvel_min             =  -1.4535508180771E-03
(PID.TID 0000.0001) %MON dynstat_vvel_mean            =   5.2214804462518E-05
(PID.TID 0000.0001) %MON dynstat_vvel_sd              =   8.3389348710344E-05
(PID.TID 0000.0001) %MON dynstat_vvel_del2            =   4.5099589999543E-07
(PID.TID 0000.0001) %MON dynstat_wvel_max             =   2.3623705949838E-04
(PID.TID 0000.0001) %MON dynstat_wvel_min             =  -2.1707567154643E-04
(PID.TID 0000.0001) %MON dynstat_wvel_mean            =  -9.4173098328713E-08
(PID.TID 0000.0001) %MON dynstat_wvel_sd              =   2.9591058914612E-05
(PID.TID 0000.0001) %MON dynstat_wvel_del2            =   1.6415013351008E-07
(PID.TID 0000.0001) %MON dynstat_theta_max            =   1.2000000000000E+00
(PID.TID 0000.0001) %MON dynstat_theta_min            =  -1.0000000000000E+00
(PID.TID 0000.0001) %MON dynstat_theta_mean           =   5.6548704687229E-01
(PID.TID 0000.0001) %MON dynstat_theta_sd             =   8.4906484073672E-01
(PID.TID 0000.0001) %MON dynstat_theta_del2           =   2.8694150855713E-06
(PID.TID 0000.0001) %MON dynstat_salt_max             =   3.4700000000000E+01
(PID.TID 0000.0001) %MON dynstat_salt_min             =   3.4000000000000E+01
(PID.TID 0000.0001) %MON dynstat_salt_mean            =   3.4498108086043E+01
(PID.TID 0000.0001) %MON dynstat_salt_sd              =   2.7015717232108E-01
(PID.TID 0000.0001) %MON dynstat_salt_del2            =   9.0776337956508E-07
(PID.TID 0000.0001) %MON advcfl_uvel_max              =   1.6659893677682E-04
(PID.TID 0000.0001) %MON advcfl_vvel_max              =   1.6915915622526E-04
(PID.TID 0000.0001) %MON advcfl_wvel_max              =   1.1811852974919E-03
(PID.TID 0000.0001) %MON advcfl_W_hf_max              =   1.1811852974919E-03
(PID.TID 0000.0001) %MON pe_b_mean                    =  -6.8302564629116E-01
(PID.TID 0000.0001) %MON ke_max                       =   1.9333393805643E-06
(PID.TID 0000.0001) %MON ke_mean                      =   6.2603977808451E-09
(PID.TID 0000.0001) %MON ke_vol                       =   4.6182849242481E+12
(PID.TID 0000.0001) // =======================================================
(PID.TID 0000.0001) // End MONITOR dynamic field statistics
(PID.TID 0000.0001) // =======================================================
(PID.TID 0000.0001) // =======================================================
(PID.TID 0000.0001) // Begin OBCS MONITOR field statistics
(PID.TID 0000.0001) // =======================================================
(PID.TID 0000.0001) %MON obc_N_vVel_max               =   5.7587746779028E-05
(PID.TID 0000.0001) %MON obc_N_vVel_min               =   5.7587746779026E-05
(PID.TID 0000.0001) %MON obc_N_vVel_mean              =   5.7587746779028E-05
(PID.TID 0000.0001) %MON obc_N_vVel_sd                =  -1.8032537353656E-22
(PID.TID 0000.0001) %MON obc_N_vVel_Int               =   3.8007912874159E+03
(PID.TID 0000.0001) // =======================================================
(PID.TID 0000.0001) // End OBCS MONITOR field statistics
(PID.TID 0000.0001) // =======================================================
 cg2d: Sum(rhs),rhsMax =   3.01303119261096E+00  4.53054510124199E+02
(PID.TID 0000.0001)      cg2d_init_res =   3.52380417711928E-06
(PID.TID 0000.0001)      cg2d_iters(min,last) =      -1      83
(PID.TID 0000.0001)      cg2d_last_res =   8.39449704875773E-12
(PID.TID 0000.0001) // =======================================================
(PID.TID 0000.0001) // Begin MONITOR dynamic field statistics
(PID.TID 0000.0001) // =======================================================
(PID.TID 0000.0001) %MON time_tsnumber                =                    89
(PID.TID 0000.0001) %MON time_secondsf                =   8.9000000000000E+03
(PID.TID 0000.0001) %MON dynstat_eta_max              =   5.7952335917744E+00
(PID.TID 0000.0001) %MON dynstat_eta_min              =  -1.4179110014773E+01
(PID.TID 0000.0001) %MON dynstat_eta_mean             =  -2.5279025388098E+00
(PID.TID 0000.0001) %MON dynstat_eta_sd               =   4.9422838856992E+00
(PID.TID 0000.0001) %MON dynstat_eta_del2             =   1.9058064633343E-01
(PID.TID 0000.0001) %MON dynstat_uvel_max             =   1.6010930854016E-03
(PID.TID 0000.0001) %MON dynstat_uvel_min             =  -1.6914946940005E-03
(PID.TID 0000.0001) %MON dynstat_uvel_mean            =   5.8130233565601E-07
(PID.TID 0000.0001) %MON dynstat_uvel_sd              =   5.4509989917489E-05
(PID.TID 0000.0001) %MON dynstat_uvel_del2            =   3.4920235066717E-07
(PID.TID 0000.0001) %MON dynstat_vvel_max             =   1.7064155479716E-03
(PID.TID 0000.0001) %MON dynstat_vvel_min             =  -1.4840348525791E-03
(PID.TID 0000.0001) %MON dynstat_vvel_mean            =   3.9468930981005E-05
(PID.TID 0000.0001) %MON dynstat_vvel_sd              =   8.3660536315799E-05
(PID.TID 0000.0001) %MON dynstat_vvel_del2            =   4.5774583300874E-07
(PID.TID 0000.0001) %MON dynstat_wvel_max             =   2.1699712570673E-04
(PID.TID 0000.0001) %MON dynstat_wvel_min             =  -2.3118161627124E-04
(PID.TID 0000.0001) %MON dynstat_wvel_mean            =  -1.0046304918495E-07
(PID.TID 0000.0001) %MON dynstat_wvel_sd              =   2.9953312550654E-05
(PID.TID 0000.0001) %MON dynstat_wvel_del2            =   1.6929429617192E-07
(PID.TID 0000.0001) %MON dynstat_theta_max            =   1.2000000000000E+00
(PID.TID 0000.0001) %MON dynstat_theta_min            =  -1.0000000000000E+00
(PID.TID 0000.0001) %MON dynstat_theta_mean           =   5.6548686827963E-01
(PID.TID 0000.0001) %MON dynstat_theta_sd             =   8.4906478969888E-01
(PID.TID 0000.0001) %MON dynstat_theta_del2           =   2.8500406984132E-06
(PID.TID 0000.0001) %MON dynstat_salt_max             =   3.4700000000000E+01
(PID.TID 0000.0001) %MON dynstat_salt_min             =   3.4000000000000E+01
(PID.TID 0000.0001) %MON dynstat_salt_mean            =   3.4498108013408E+01
(PID.TID 0000.0001) %MON dynstat_salt_sd              =   2.7015715784432E-01
(PID.TID 0000.0001) %MON dynstat_salt_del2            =   9.0143648501687E-07
(PID.TID 0000.0001) %MON advcfl_uvel_max              =   1.6914946940005E-04
(PID.TID 0000.0001) %MON advcfl_vvel_max              =   1.7064155479716E-04
(PID.TID 0000.0001) %MON advcfl_wvel_max              =   1.1559080813562E-03
(PID.TID 0000.0001) %MON advcfl_W_hf_max              =   1.1559080813562E-03
(PID.TID 0000.0001) %MON pe_b_mean                    =  -6.8303290496038E-01
(PID.TID 0000.0001) %MON ke_max                       =   1.9840057135620E-06
(PID.TID 0000.0001) %MON ke_mean                      =   5.7284928655908E-09
(PID.TID 0000.0001) %MON ke_vol                       =   4.6182845548784E+12
(PID.TID 0000.0001) // =======================================================
(PID.TID 0000.0001) // End MONITOR dynamic field statistics
(PID.TID 0000.0001) // =======================================================
(PID.TID 0000.0001) // =======================================================
(PID.TID 0000.0001) // Begin OBCS MONITOR field statistics
(PID.TID 0000.0001) // =======================================================
(PID.TID 0000.0001) %MON obc_N_vVel_max               =   4.6464898771195E-05
(PID.TID 0000.0001) %MON obc_N_vVel_min               =   4.6464898771195E-05
(PID.TID 0000.0001) %MON obc_N_vVel_mean              =   4.6464898771195E-05
(PID.TID 0000.0001) %MON obc_N_vVel_sd                =   9.6466480661531E-12
(PID.TID 0000.0001) %MON obc_N_vVel_Int               =   3.0666833188988E+03
(PID.TID 0000.0001) // =======================================================
(PID.TID 0000.0001) // End OBCS MONITOR field statistics
(PID.TID 0000.0001) // =======================================================
 cg2d: Sum(rhs),rhsMax =   3.01307551286709E+00  4.53054446452670E+02
(PID.TID 0000.0001)      cg2d_init_res =   3.54970187683804E-06
(PID.TID 0000.0001)      cg2d_iters(min,last) =      -1      79
(PID.TID 0000.0001)      cg2d_last_res =   8.31875707167477E-12
(PID.TID 0000.0001) // =======================================================
(PID.TID 0000.0001) // Begin MONITOR dynamic field statistics
(PID.TID 0000.0001) // =======================================================
(PID.TID 0000.0001) %MON time_tsnumber                =                    90
(PID.TID 0000.0001) %MON time_secondsf                =   9.0000000000000E+03
(PID.TID 0000.0001) %MON dynstat_eta_max              =   5.7951886343087E+00
(PID.TID 0000.0001) %MON dynstat_eta_min              =  -1.4179148298831E+01
(PID.TID 0000.0001) %MON dynstat_eta_mean             =  -2.5279393677817E+00
(PID.TID 0000.0001) %MON dynstat_eta_sd               =   4.9422849746979E+00
(PID.TID 0000.0001) %MON dynstat_eta_del2             =   1.9058064522435E-01
(PID.TID 0000.0001) %MON dynstat_uvel_max             =   1.6218762191880E-03
(PID.TID 0000.0001) %MON dynstat_uvel_min             =  -1.7168062150805E-03
(PID.TID 0000.0001) %MON dynstat_uvel_mean            =   5.9504449363164E-07
(PID.TID 0000.0001) %MON dynstat_uvel_sd              =   5.4975291165152E-05
(PID.TID 0000.0001) %MON dynstat_uvel_del2            =   3.5214604884940E-07
(PID.TID 0000.0001) %MON dynstat_vvel_max             =   1.7209786205736E-03
(PID.TID 0000.0001) %MON dynstat_vvel_min             =  -1.5142063919136E-03
(PID.TID 0000.0001) %MON dynstat_vvel_mean            =   2.6471336582124E-05
(PID.TID 0000.0001) %MON dynstat_vvel_sd              =   8.4030909967114E-05
(PID.TID 0000.0001) %MON dynstat_vvel_del2            =   4.6362456892330E-07
(PID.TID 0000.0001) %MON dynstat_wvel_max             =   1.9323782599380E-04
(PID.TID 0000.0001) %MON dynstat_wvel_min             =  -2.4339939980685E-04
(PID.TID 0000.0001) %MON dynstat_wvel_mean            =  -1.0334910030399E-07
(PID.TID 0000.0001) %MON dynstat_wvel_sd              =   3.0326200632913E-05
(PID.TID 0000.0001) %MON dynstat_wvel_del2            =   1.7387748443963E-07
(PID.TID 0000.0001) %MON dynstat_theta_max            =   1.2000000000000E+00
(PID.TID 0000.0001) %MON dynstat_theta_min            =  -1.0000000000000E+00
(PID.TID 0000.0001) %MON dynstat_theta_mean           =   5.6548668498195E-01
(PID.TID 0000.0001) %MON dynstat_theta_sd             =   8.4906474098500E-01
(PID.TID 0000.0001) %MON dynstat_theta_del2           =   2.8309740012870E-06
(PID.TID 0000.0001) %MON dynstat_salt_max             =   3.4700000000000E+01
(PID.TID 0000.0001) %MON dynstat_salt_min             =   3.4000000000000E+01
(PID.TID 0000.0001) %MON dynstat_salt_mean            =   3.4498107939277E+01
(PID.TID 0000.0001) %MON dynstat_salt_sd              =   2.7015714410270E-01
(PID.TID 0000.0001) %MON dynstat_salt_del2            =   8.9520742219557E-07
(PID.TID 0000.0001) %MON advcfl_uvel_max              =   1.7168062150805E-04
(PID.TID 0000.0001) %MON advcfl_vvel_max              =   1.7209786205736E-04
(PID.TID 0000.0001) %MON advcfl_wvel_max              =   1.2169969990343E-03
(PID.TID 0000.0001) %MON advcfl_W_hf_max              =   1.2169969990343E-03
(PID.TID 0000.0001) %MON pe_b_mean                    =  -6.8303740101863E-01
(PID.TID 0000.0001) %MON ke_max                       =   2.0346785104839E-06
(PID.TID 0000.0001) %MON ke_mean                      =   5.3594234333499E-09
(PID.TID 0000.0001) %MON ke_vol                       =   4.6182842589195E+12
(PID.TID 0000.0001) // =======================================================
(PID.TID 0000.0001) // End MONITOR dynamic field statistics
(PID.TID 0000.0001) // =======================================================
(PID.TID 0000.0001) // =======================================================
(PID.TID 0000.0001) // Begin OBCS MONITOR field statistics
(PID.TID 0000.0001) // =======================================================
(PID.TID 0000.0001) %MON obc_N_vVel_max               =   3.4768717841269E-05
(PID.TID 0000.0001) %MON obc_N_vVel_min               =   3.4768717841269E-05
(PID.TID 0000.0001) %MON obc_N_vVel_mean              =   3.4768717841269E-05
(PID.TID 0000.0001) %MON obc_N_vVel_sd                =   6.6679050626659E-12
(PID.TID 0000.0001) %MON obc_N_vVel_Int               =   2.2947353775237E+03
(PID.TID 0000.0001) // =======================================================
(PID.TID 0000.0001) // End OBCS MONITOR field statistics
(PID.TID 0000.0001) // =======================================================
 cg2d: Sum(rhs),rhsMax =   3.01310404923383E+00  4.53054389514545E+02
(PID.TID 0000.0001)      cg2d_init_res =   3.59436482567233E-06
(PID.TID 0000.0001)      cg2d_iters(min,last) =      -1      77
(PID.TID 0000.0001)      cg2d_last_res =   9.97217441250839E-12
(PID.TID 0000.0001) // =======================================================
(PID.TID 0000.0001) // Begin MONITOR dynamic field statistics
(PID.TID 0000.0001) // =======================================================
(PID.TID 0000.0001) %MON time_tsnumber                =                    91
(PID.TID 0000.0001) %MON time_secondsf                =   9.1000000000000E+03
(PID.TID 0000.0001) %MON dynstat_eta_max              =   5.7951652725519E+00
(PID.TID 0000.0001) %MON dynstat_eta_min              =  -1.4179158699200E+01
(PID.TID 0000.0001) %MON dynstat_eta_mean             =  -2.5279629917953E+00
(PID.TID 0000.0001) %MON dynstat_eta_sd               =   4.9422818284336E+00
(PID.TID 0000.0001) %MON dynstat_eta_del2             =   1.9058064421188E-01
(PID.TID 0000.0001) %MON dynstat_uvel_max             =   1.6423443990234E-03
(PID.TID 0000.0001) %MON dynstat_uvel_min             =  -1.7419377981112E-03
(PID.TID 0000.0001) %MON dynstat_uvel_mean            =   5.9147525963446E-07
(PID.TID 0000.0001) %MON dynstat_uvel_sd              =   5.5426118466167E-05
(PID.TID 0000.0001) %MON dynstat_uvel_del2            =   3.5499352396058E-07
(PID.TID 0000.0001) %MON dynstat_vvel_max             =   1.7355776645314E-03
(PID.TID 0000.0001) %MON dynstat_vvel_min             =  -1.5437806577037E-03
(PID.TID 0000.0001) %MON dynstat_vvel_mean            =   1.3622713847204E-05
(PID.TID 0000.0001) %MON dynstat_vvel_sd              =   8.4457576087039E-05
(PID.TID 0000.0001) %MON dynstat_vvel_del2            =   4.6827539068514E-07
(PID.TID 0000.0001) %MON dynstat_wvel_max             =   1.6542660847794E-04
(PID.TID 0000.0001) %MON dynstat_wvel_min             =  -2.5093553460589E-04
(PID.TID 0000.0001) %MON dynstat_wvel_mean            =  -1.0298626130334E-07
(PID.TID 0000.0001) %MON dynstat_wvel_sd              =   3.0654789593724E-05
(PID.TID 0000.0001) %MON dynstat_wvel_del2            =   1.7739326789939E-07
(PID.TID 0000.0001) %MON dynstat_theta_max            =   1.2000000000000E+00
(PID.TID 0000.0001) %MON dynstat_theta_min            =  -1.0000000000000E+00
(PID.TID 0000.0001) %MON dynstat_theta_mean           =   5.6548649677396E-01
(PID.TID 0000.0001) %MON dynstat_theta_sd             =   8.4906469459179E-01
(PID.TID 0000.0001) %MON dynstat_theta_del2           =   2.8124381120164E-06
(PID.TID 0000.0001) %MON dynstat_salt_max             =   3.4700000000000E+01
(PID.TID 0000.0001) %MON dynstat_salt_min             =   3.4000000000000E+01
(PID.TID 0000.0001) %MON dynstat_salt_mean            =   3.4498107863583E+01
(PID.TID 0000.0001) %MON dynstat_salt_sd              =   2.7015713109541E-01
(PID.TID 0000.0001) %MON dynstat_salt_del2            =   8.8914782547791E-07
(PID.TID 0000.0001) %MON advcfl_uvel_max              =   1.7419377981112E-04
(PID.TID 0000.0001) %MON advcfl_vvel_max              =   1.7355776645314E-04
(PID.TID 0000.0001) %MON advcfl_wvel_max              =   1.2546776730294E-03
(PID.TID 0000.0001) %MON advcfl_W_hf_max              =   1.2546776730294E-03
(PID.TID 0000.0001) %MON pe_b_mean                    =  -6.8303918533491E-01
(PID.TID 0000.0001) %MON ke_max                       =   2.0854525906339E-06
(PID.TID 0000.0001) %MON ke_mean                      =   5.1646623925193E-09
(PID.TID 0000.0001) %MON ke_vol                       =   4.6182840401554E+12
(PID.TID 0000.0001) // =======================================================
(PID.TID 0000.0001) // End MONITOR dynamic field statistics
(PID.TID 0000.0001) // =======================================================
(PID.TID 0000.0001) // =======================================================
(PID.TID 0000.0001) // Begin OBCS MONITOR field statistics
(PID.TID 0000.0001) // =======================================================
(PID.TID 0000.0001) %MON obc_N_vVel_max               =   2.2884257709960E-05
(PID.TID 0000.0001) %MON obc_N_vVel_min               =   2.2884257709960E-05
(PID.TID 0000.0001) %MON obc_N_vVel_mean              =   2.2884257709960E-05
(PID.TID 0000.0001) %MON obc_N_vVel_sd                =   0.0000000000000E+00
(PID.TID 0000.0001) %MON obc_N_vVel_Int               =   1.5103610088573E+03
(PID.TID 0000.0001) // =======================================================
(PID.TID 0000.0001) // End OBCS MONITOR field statistics
(PID.TID 0000.0001) // =======================================================
 cg2d: Sum(rhs),rhsMax =   3.01311703007438E+00  4.53054339776423E+02
(PID.TID 0000.0001)      cg2d_init_res =   3.64381971697090E-06
(PID.TID 0000.0001)      cg2d_iters(min,last) =      -1      78
(PID.TID 0000.0001)      cg2d_last_res =   8.57379582488343E-12
(PID.TID 0000.0001) // =======================================================
(PID.TID 0000.0001) // Begin MONITOR dynamic field statistics
(PID.TID 0000.0001) // =======================================================
(PID.TID 0000.0001) %MON time_tsnumber                =                    92
(PID.TID 0000.0001) %MON time_secondsf                =   9.2000000000000E+03
(PID.TID 0000.0001) %MON dynstat_eta_max              =   5.7951626946709E+00
(PID.TID 0000.0001) %MON dynstat_eta_min              =  -1.4179142780716E+01
(PID.TID 0000.0001) %MON dynstat_eta_mean             =  -2.5279736050545E+00
(PID.TID 0000.0001) %MON dynstat_eta_sd               =   4.9422748237287E+00
(PID.TID 0000.0001) %MON dynstat_eta_del2             =   1.9058064329109E-01
(PID.TID 0000.0001) %MON dynstat_uvel_max             =   1.6625194458353E-03
(PID.TID 0000.0001) %MON dynstat_uvel_min             =  -1.7669007386756E-03
(PID.TID 0000.0001) %MON dynstat_uvel_mean            =   5.7155938348099E-07
(PID.TID 0000.0001) %MON dynstat_uvel_sd              =   5.5862940946221E-05
(PID.TID 0000.0001) %MON dynstat_uvel_del2            =   3.5774800498949E-07
(PID.TID 0000.0001) %MON dynstat_vvel_max             =   1.7504791865122E-03
(PID.TID 0000.0001) %MON dynstat_vvel_min             =  -1.5837052401313E-03
(PID.TID 0000.0001) %MON dynstat_vvel_mean            =   1.2907100653028E-06
(PID.TID 0000.0001) %MON dynstat_vvel_sd              =   8.4894629751058E-05
(PID.TID 0000.0001) %MON dynstat_vvel_del2            =   4.7148980021554E-07
(PID.TID 0000.0001) %MON dynstat_wvel_max             =   1.7942560311015E-04
(PID.TID 0000.0001) %MON dynstat_wvel_min             =  -2.5224504286790E-04
(PID.TID 0000.0001) %MON dynstat_wvel_mean            =  -9.9614228001333E-08
(PID.TID 0000.0001) %MON dynstat_wvel_sd              =   3.0894383230713E-05
(PID.TID 0000.0001) %MON dynstat_wvel_del2            =   1.7949846970014E-07
(PID.TID 0000.0001) %MON dynstat_theta_max            =   1.2000000000000E+00
(PID.TID 0000.0001) %MON dynstat_theta_min            =  -1.0000000000000E+00
(PID.TID 0000.0001) %MON dynstat_theta_mean           =   5.6548630360940E-01
(PID.TID 0000.0001) %MON dynstat_theta_sd             =   8.4906465045641E-01
(PID.TID 0000.0001) %MON dynstat_theta_del2           =   2.7945985097026E-06
(PID.TID 0000.0001) %MON dynstat_salt_max             =   3.4700000000000E+01
(PID.TID 0000.0001) %MON dynstat_salt_min             =   3.4000000000000E+01
(PID.TID 0000.0001) %MON dynstat_salt_mean            =   3.4498107786312E+01
(PID.TID 0000.0001) %MON dynstat_salt_sd              =   2.7015711880246E-01
(PID.TID 0000.0001) %MON dynstat_salt_del2            =   8.8331094433875E-07
(PID.TID 0000.0001) %MON advcfl_uvel_max              =   1.7669007386756E-04
(PID.TID 0000.0001) %MON advcfl_vvel_max              =   1.7504791865122E-04
(PID.TID 0000.0001) %MON advcfl_wvel_max              =   1.2612252143395E-03
(PID.TID 0000.0001) %MON advcfl_W_hf_max              =   1.2612252143395E-03
(PID.TID 0000.0001) %MON pe_b_mean                    =  -6.8303838499844E-01
(PID.TID 0000.0001) %MON ke_max                       =   2.1364133978345E-06
(PID.TID 0000.0001) %MON ke_mean                      =   5.1349794124207E-09
(PID.TID 0000.0001) %MON ke_vol                       =   4.6182838998287E+12
(PID.TID 0000.0001) // =======================================================
(PID.TID 0000.0001) // End MONITOR dynamic field statistics
(PID.TID 0000.0001) // =======================================================
(PID.TID 0000.0001) // =======================================================
(PID.TID 0000.0001) // Begin OBCS MONITOR field statistics
(PID.TID 0000.0001) // =======================================================
(PID.TID 0000.0001) %MON obc_N_vVel_max               =   1.1174581067247E-05
(PID.TID 0000.0001) %MON obc_N_vVel_min               =   1.1174581067246E-05
(PID.TID 0000.0001) %MON obc_N_vVel_mean              =   1.1174581067246E-05
(PID.TID 0000.0001) %MON obc_N_vVel_sd                =   3.3300735858295E-12
(PID.TID 0000.0001) %MON obc_N_vVel_Int               =   7.3752235043825E+02
(PID.TID 0000.0001) // =======================================================
(PID.TID 0000.0001) // End OBCS MONITOR field statistics
(PID.TID 0000.0001) // =======================================================
 cg2d: Sum(rhs),rhsMax =   3.01311512511962E+00  4.53054297450905E+02
(PID.TID 0000.0001)      cg2d_init_res =   3.68545763349110E-06
(PID.TID 0000.0001)      cg2d_iters(min,last) =      -1      79
(PID.TID 0000.0001)      cg2d_last_res =   9.36668270098519E-12
(PID.TID 0000.0001) // =======================================================
(PID.TID 0000.0001) // Begin MONITOR dynamic field statistics
(PID.TID 0000.0001) // =======================================================
(PID.TID 0000.0001) %MON time_tsnumber                =                    93
(PID.TID 0000.0001) %MON time_secondsf                =   9.3000000000000E+03
(PID.TID 0000.0001) %MON dynstat_eta_max              =   5.7951795421508E+00
(PID.TID 0000.0001) %MON dynstat_eta_min              =  -1.4179102773496E+01
(PID.TID 0000.0001) %MON dynstat_eta_mean             =  -2.5279717706477E+00
(PID.TID 0000.0001) %MON dynstat_eta_sd               =   4.9422644240838E+00
(PID.TID 0000.0001) %MON dynstat_eta_del2             =   1.9058064244994E-01
(PID.TID 0000.0001) %MON dynstat_uvel_max             =   1.6824219463167E-03
(PID.TID 0000.0001) %MON dynstat_uvel_min             =  -1.7917033540273E-03
(PID.TID 0000.0001) %MON dynstat_uvel_mean            =   5.3660259605625E-07
(PID.TID 0000.0001) %MON dynstat_uvel_sd              =   5.6286317842148E-05
(PID.TID 0000.0001) %MON dynstat_uvel_del2            =   3.6041282017976E-07
(PID.TID 0000.0001) %MON dynstat_vvel_max             =   1.7659133888355E-03
(PID.TID 0000.0001) %MON dynstat_vvel_min             =  -1.6223745416886E-03
(PID.TID 0000.0001) %MON dynstat_vvel_mean            =  -1.0198513104876E-05
(PID.TID 0000.0001) %MON dynstat_vvel_sd              =   8.5299878795426E-05
(PID.TID 0000.0001) %MON dynstat_vvel_del2            =   4.7321754421606E-07
(PID.TID 0000.0001) %MON dynstat_wvel_max             =   1.9811516695179E-04
(PID.TID 0000.0001) %MON dynstat_wvel_min             =  -2.4741902823966E-04
(PID.TID 0000.0001) %MON dynstat_wvel_mean            =  -9.3544554748325E-08
(PID.TID 0000.0001) %MON dynstat_wvel_sd              =   3.1014446059409E-05
(PID.TID 0000.0001) %MON dynstat_wvel_del2            =   1.8001881209582E-07
(PID.TID 0000.0001) %MON dynstat_theta_max            =   1.2000000000000E+00
(PID.TID 0000.0001) %MON dynstat_theta_min            =  -1.0000000000000E+00
(PID.TID 0000.0001) %MON dynstat_theta_mean           =   5.6548610559083E-01
(PID.TID 0000.0001) %MON dynstat_theta_sd             =   8.4906460843753E-01
(PID.TID 0000.0001) %MON dynstat_theta_del2           =   2.7775444251043E-06
(PID.TID 0000.0001) %MON dynstat_salt_max             =   3.4700000000000E+01
(PID.TID 0000.0001) %MON dynstat_salt_min             =   3.4000000000000E+01
(PID.TID 0000.0001) %MON dynstat_salt_mean            =   3.4498107707497E+01
(PID.TID 0000.0001) %MON dynstat_salt_sd              =   2.7015710717950E-01
(PID.TID 0000.0001) %MON dynstat_salt_del2            =   8.7772568054391E-07
(PID.TID 0000.0001) %MON advcfl_uvel_max              =   1.7917033540273E-04
(PID.TID 0000.0001) %MON advcfl_vvel_max              =   1.7659133888355E-04
(PID.TID 0000.0001) %MON advcfl_wvel_max              =   1.2370951411983E-03
(PID.TID 0000.0001) %MON advcfl_W_hf_max              =   1.2370951411983E-03
(PID.TID 0000.0001) %MON pe_b_mean                    =  -6.8303519412405E-01
(PID.TID 0000.0001) %MON ke_max                       =   2.1876343487181E-06
(PID.TID 0000.0001) %MON ke_mean                      =   5.2443555668415E-09
(PID.TID 0000.0001) %MON ke_vol                       =   4.6182838367860E+12
(PID.TID 0000.0001) // =======================================================
(PID.TID 0000.0001) // End MONITOR dynamic field statistics
(PID.TID 0000.0001) // =======================================================
(PID.TID 0000.0001) // =======================================================
(PID.TID 0000.0001) // Begin OBCS MONITOR field statistics
(PID.TID 0000.0001) // =======================================================
(PID.TID 0000.0001) %MON obc_N_vVel_max               =  -2.8316169853216E-08
(PID.TID 0000.0001) %MON obc_N_vVel_min               =  -2.8316169853217E-08
(PID.TID 0000.0001) %MON obc_N_vVel_mean              =  -2.8316169853216E-08
(PID.TID 0000.0001) %MON obc_N_vVel_sd                =   6.2567741226284E-15
(PID.TID 0000.0001) %MON obc_N_vVel_Int               =  -1.8688672103123E+00
(PID.TID 0000.0001) // =======================================================
(PID.TID 0000.0001) // End OBCS MONITOR field statistics
(PID.TID 0000.0001) // =======================================================
 cg2d: Sum(rhs),rhsMax =   3.01309939432756E+00  4.53054262510230E+02
(PID.TID 0000.0001)      cg2d_init_res =   3.70938569620139E-06
(PID.TID 0000.0001)      cg2d_iters(min,last) =      -1      83
(PID.TID 0000.0001)      cg2d_last_res =   8.71399544180163E-12
(PID.TID 0000.0001) // =======================================================
(PID.TID 0000.0001) // Begin MONITOR dynamic field statistics
(PID.TID 0000.0001) // =======================================================
(PID.TID 0000.0001) %MON time_tsnumber                =                    94
(PID.TID 0000.0001) %MON time_secondsf                =   9.4000000000000E+03
(PID.TID 0000.0001) %MON dynstat_eta_max              =   5.7952139858779E+00
(PID.TID 0000.0001) %MON dynstat_eta_min              =  -1.4179041458052E+01
(PID.TID 0000.0001) %MON dynstat_eta_mean             =  -2.5279583777168E+00
(PID.TID 0000.0001) %MON dynstat_eta_sd               =   4.9422511598954E+00
(PID.TID 0000.0001) %MON dynstat_eta_del2             =   1.9058064167439E-01
(PID.TID 0000.0001) %MON dynstat_uvel_max             =   1.7020708440008E-03
(PID.TID 0000.0001) %MON dynstat_uvel_min             =  -1.8163509716462E-03
(PID.TID 0000.0001) %MON dynstat_uvel_mean            =   4.8826376359979E-07
(PID.TID 0000.0001) %MON dynstat_uvel_sd              =   5.6696887991554E-05
(PID.TID 0000.0001) %MON dynstat_uvel_del2            =   3.6299134257998E-07
(PID.TID 0000.0001) %MON dynstat_vvel_max             =   1.7820698833617E-03
(PID.TID 0000.0001) %MON dynstat_vvel_min             =  -1.6580181008266E-03
(PID.TID 0000.0001) %MON dynstat_vvel_mean            =  -2.0566930624108E-05
(PID.TID 0000.0001) %MON dynstat_vvel_sd              =   8.5640173459800E-05
(PID.TID 0000.0001) %MON dynstat_vvel_del2            =   4.7356212460800E-07
(PID.TID 0000.0001) %MON dynstat_wvel_max             =   2.1290411771019E-04
(PID.TID 0000.0001) %MON dynstat_wvel_min             =  -2.3678199180978E-04
(PID.TID 0000.0001) %MON dynstat_wvel_mean            =  -8.5147090561677E-08
(PID.TID 0000.0001) %MON dynstat_wvel_sd              =   3.1000474632171E-05
(PID.TID 0000.0001) %MON dynstat_wvel_del2            =   1.7894467264711E-07
(PID.TID 0000.0001) %MON dynstat_theta_max            =   1.2000000000000E+00
(PID.TID 0000.0001) %MON dynstat_theta_min            =  -1.0000000000000E+00
(PID.TID 0000.0001) %MON dynstat_theta_mean           =   5.6548590295580E-01
(PID.TID 0000.0001) %MON dynstat_theta_sd             =   8.4906456824701E-01
(PID.TID 0000.0001) %MON dynstat_theta_del2           =   2.7612801230125E-06
(PID.TID 0000.0001) %MON dynstat_salt_max             =   3.4700000000000E+01
(PID.TID 0000.0001) %MON dynstat_salt_min             =   3.4000000000000E+01
(PID.TID 0000.0001) %MON dynstat_salt_mean            =   3.4498107627212E+01
(PID.TID 0000.0001) %MON dynstat_salt_sd              =   2.7015709613548E-01
(PID.TID 0000.0001) %MON dynstat_salt_del2            =   8.7239373345854E-07
(PID.TID 0000.0001) %MON advcfl_uvel_max              =   1.8163509716462E-04
(PID.TID 0000.0001) %MON advcfl_vvel_max              =   1.7820698833617E-04
(PID.TID 0000.0001) %MON advcfl_wvel_max              =   1.1839099590489E-03
(PID.TID 0000.0001) %MON advcfl_W_hf_max              =   1.1839099590489E-03
(PID.TID 0000.0001) %MON pe_b_mean                    =  -6.8302986333769E-01
(PID.TID 0000.0001) %MON ke_max                       =   2.2391755332605E-06
(PID.TID 0000.0001) %MON ke_mean                      =   5.4552734980676E-09
(PID.TID 0000.0001) %MON ke_vol                       =   4.6182838476824E+12
(PID.TID 0000.0001) // =======================================================
(PID.TID 0000.0001) // End MONITOR dynamic field statistics
(PID.TID 0000.0001) // =======================================================
(PID.TID 0000.0001) // =======================================================
(PID.TID 0000.0001) // Begin OBCS MONITOR field statistics
(PID.TID 0000.0001) // =======================================================
(PID.TID 0000.0001) %MON obc_N_vVel_max               =  -1.0430985607322E-05
(PID.TID 0000.0001) %MON obc_N_vVel_min               =  -1.0430985607322E-05
(PID.TID 0000.0001) %MON obc_N_vVel_mean              =  -1.0430985607322E-05
(PID.TID 0000.0001) %MON obc_N_vVel_sd                =   2.2566192957674E-12
(PID.TID 0000.0001) %MON obc_N_vVel_Int               =  -6.8844505008326E+02
(PID.TID 0000.0001) // =======================================================
(PID.TID 0000.0001) // End OBCS MONITOR field statistics
(PID.TID 0000.0001) // =======================================================
 cg2d: Sum(rhs),rhsMax =   3.01307122887588E+00  4.53054234708679E+02
(PID.TID 0000.0001)      cg2d_init_res =   3.70977283008306E-06
(PID.TID 0000.0001)      cg2d_iters(min,last) =      -1      83
(PID.TID 0000.0001)      cg2d_last_res =   9.15709089095149E-12
(PID.TID 0000.0001) // =======================================================
(PID.TID 0000.0001) // Begin MONITOR dynamic field statistics
(PID.TID 0000.0001) // =======================================================
(PID.TID 0000.0001) %MON time_tsnumber                =                    95
(PID.TID 0000.0001) %MON time_secondsf                =   9.5000000000000E+03
(PID.TID 0000.0001) %MON dynstat_eta_max              =   5.7952638097706E+00
(PID.TID 0000.0001) %MON dynstat_eta_min              =  -1.4178962046539E+01
(PID.TID 0000.0001) %MON dynstat_eta_mean             =  -2.5279345920761E+00
(PID.TID 0000.0001) %MON dynstat_eta_sd               =   4.9422356080863E+00
(PID.TID 0000.0001) %MON dynstat_eta_del2             =   1.9058064095176E-01
(PID.TID 0000.0001) %MON dynstat_uvel_max             =   1.7214832396721E-03
(PID.TID 0000.0001) %MON dynstat_uvel_min             =  -1.8408459030148E-03
(PID.TID 0000.0001) %MON dynstat_uvel_mean            =   4.2853809900669E-07
(PID.TID 0000.0001) %MON dynstat_uvel_sd              =   5.7095358860675E-05
(PID.TID 0000.0001) %MON dynstat_uvel_del2            =   3.6548693102087E-07
(PID.TID 0000.0001) %MON dynstat_vvel_max             =   1.7990950877795E-03
(PID.TID 0000.0001) %MON dynstat_vvel_min             =  -1.6902627262221E-03
(PID.TID 0000.0001) %MON dynstat_vvel_mean            =  -2.9589392760637E-05
(PID.TID 0000.0001) %MON dynstat_vvel_sd              =   8.5894866232260E-05
(PID.TID 0000.0001) %MON dynstat_vvel_del2            =   4.7276331775791E-07
(PID.TID 0000.0001) %MON dynstat_wvel_max             =   2.2343164906949E-04
(PID.TID 0000.0001) %MON dynstat_wvel_min             =  -2.2076663552867E-04
(PID.TID 0000.0001) %MON dynstat_wvel_mean            =  -7.4834825649127E-08
(PID.TID 0000.0001) %MON dynstat_wvel_sd              =   3.0854215200008E-05
(PID.TID 0000.0001) %MON dynstat_wvel_del2            =   1.7642144776819E-07
(PID.TID 0000.0001) %MON dynstat_theta_max            =   1.2000000000000E+00
(PID.TID 0000.0001) %MON dynstat_theta_min            =  -1.0000000000000E+00
(PID.TID 0000.0001) %MON dynstat_theta_mean           =   5.6548569606020E-01
(PID.TID 0000.0001) %MON dynstat_theta_sd             =   8.4906452971023E-01
(PID.TID 0000.0001) %MON dynstat_theta_del2           =   2.7457299132678E-06
(PID.TID 0000.0001) %MON dynstat_salt_max             =   3.4700000000000E+01
(PID.TID 0000.0001) %MON dynstat_salt_min             =   3.4000000000000E+01
(PID.TID 0000.0001) %MON dynstat_salt_mean            =   3.4498107545572E+01
(PID.TID 0000.0001) %MON dynstat_salt_sd              =   2.7015708561541E-01
(PID.TID 0000.0001) %MON dynstat_salt_del2            =   8.6729116714441E-07
(PID.TID 0000.0001) %MON advcfl_uvel_max              =   1.8408459030148E-04
(PID.TID 0000.0001) %MON advcfl_vvel_max              =   1.7990950877795E-04
(PID.TID 0000.0001) %MON advcfl_wvel_max              =   1.1171582453475E-03
(PID.TID 0000.0001) %MON advcfl_W_hf_max              =   1.1171582453475E-03
(PID.TID 0000.0001) %MON pe_b_mean                    =  -6.8302268835059E-01
(PID.TID 0000.0001) %MON ke_max                       =   2.2910830482264E-06
(PID.TID 0000.0001) %MON ke_mean                      =   5.7245850493261E-09
(PID.TID 0000.0001) %MON ke_vol                       =   4.6182839272364E+12
(PID.TID 0000.0001) // =======================================================
(PID.TID 0000.0001) // End MONITOR dynamic field statistics
(PID.TID 0000.0001) // =======================================================
(PID.TID 0000.0001) // =======================================================
(PID.TID 0000.0001) // Begin OBCS MONITOR field statistics
(PID.TID 0000.0001) // =======================================================
(PID.TID 0000.0001) %MON obc_N_vVel_max               =  -1.9784421500717E-05
(PID.TID 0000.0001) %MON obc_N_vVel_min               =  -1.9784421500717E-05
(PID.TID 0000.0001) %MON obc_N_vVel_mean              =  -1.9784421500717E-05
(PID.TID 0000.0001) %MON obc_N_vVel_sd                =  -6.5140473238551E-24
(PID.TID 0000.0001) %MON obc_N_vVel_Int               =  -1.3057718190473E+03
(PID.TID 0000.0001) // =======================================================
(PID.TID 0000.0001) // End OBCS MONITOR field statistics
(PID.TID 0000.0001) // =======================================================
 cg2d: Sum(rhs),rhsMax =   3.01303228666376E+00  4.53054213602700E+02
(PID.TID 0000.0001)      cg2d_init_res =   3.68422793879727E-06
(PID.TID 0000.0001)      cg2d_iters(min,last) =      -1      83
(PID.TID 0000.0001)      cg2d_last_res =   9.52543948631355E-12
(PID.TID 0000.0001) // =======================================================
(PID.TID 0000.0001) // Begin MONITOR dynamic field statistics
(PID.TID 0000.0001) // =======================================================
(PID.TID 0000.0001) %MON time_tsnumber                =                    96
(PID.TID 0000.0001) %MON time_secondsf                =   9.6000000000000E+03
(PID.TID 0000.0001) %MON dynstat_eta_max              =   5.7953265077073E+00
(PID.TID 0000.0001) %MON dynstat_eta_min              =  -1.4178868051392E+01
(PID.TID 0000.0001) %MON dynstat_eta_mean             =  -2.5279018022111E+00
(PID.TID 0000.0001) %MON dynstat_eta_sd               =   4.9422183717048E+00
(PID.TID 0000.0001) %MON dynstat_eta_del2             =   1.9058064026545E-01
(PID.TID 0000.0001) %MON dynstat_uvel_max             =   1.7406740789845E-03
(PID.TID 0000.0001) %MON dynstat_uvel_min             =  -1.8651875310338E-03
(PID.TID 0000.0001) %MON dynstat_uvel_mean            =   3.5972657543510E-07
(PID.TID 0000.0001) %MON dynstat_uvel_sd              =   5.7482493122426E-05
(PID.TID 0000.0001) %MON dynstat_uvel_del2            =   3.6790287249507E-07
(PID.TID 0000.0001) %MON dynstat_vvel_max             =   1.8170911166315E-03
(PID.TID 0000.0001) %MON dynstat_vvel_min             =  -1.7188199704794E-03
(PID.TID 0000.0001) %MON dynstat_vvel_mean            =  -3.7096489252783E-05
(PID.TID 0000.0001) %MON dynstat_vvel_sd              =   8.6057264118099E-05
(PID.TID 0000.0001) %MON dynstat_vvel_del2            =   4.7116788695466E-07
(PID.TID 0000.0001) %MON dynstat_wvel_max             =   2.3068617939667E-04
(PID.TID 0000.0001) %MON dynstat_wvel_min             =  -1.9979080427782E-04
(PID.TID 0000.0001) %MON dynstat_wvel_mean            =  -6.3048825700953E-08
(PID.TID 0000.0001) %MON dynstat_wvel_sd              =   3.0592536330472E-05
(PID.TID 0000.0001) %MON dynstat_wvel_del2            =   1.7273532199863E-07
(PID.TID 0000.0001) %MON dynstat_theta_max            =   1.2000000000000E+00
(PID.TID 0000.0001) %MON dynstat_theta_min            =  -1.0000000000000E+00
(PID.TID 0000.0001) %MON dynstat_theta_mean           =   5.6548548535873E-01
(PID.TID 0000.0001) %MON dynstat_theta_sd             =   8.4906449249633E-01
(PID.TID 0000.0001) %MON dynstat_theta_del2           =   2.7307491574747E-06
(PID.TID 0000.0001) %MON dynstat_salt_max             =   3.4700000000000E+01
(PID.TID 0000.0001) %MON dynstat_salt_min             =   3.4000000000000E+01
(PID.TID 0000.0001) %MON dynstat_salt_mean            =   3.4498107462720E+01
(PID.TID 0000.0001) %MON dynstat_salt_sd              =   2.7015707551496E-01
(PID.TID 0000.0001) %MON dynstat_salt_del2            =   8.6237192921890E-07
(PID.TID 0000.0001) %MON advcfl_uvel_max              =   1.8651875310338E-04
(PID.TID 0000.0001) %MON advcfl_vvel_max              =   1.8170911166315E-04
(PID.TID 0000.0001) %MON advcfl_wvel_max              =   1.1534308969833E-03
(PID.TID 0000.0001) %MON advcfl_W_hf_max              =   1.1534308969833E-03
(PID.TID 0000.0001) %MON pe_b_mean                    =  -6.8301399801761E-01
(PID.TID 0000.0001) %MON ke_max                       =   2.3433881351258E-06
(PID.TID 0000.0001) %MON ke_mean                      =   6.0092019790689E-09
(PID.TID 0000.0001) %MON ke_vol                       =   4.6182840685231E+12
(PID.TID 0000.0001) // =======================================================
(PID.TID 0000.0001) // End MONITOR dynamic field statistics
(PID.TID 0000.0001) // =======================================================
(PID.TID 0000.0001) // =======================================================
(PID.TID 0000.0001) // Begin OBCS MONITOR field statistics
(PID.TID 0000.0001) // =======================================================
(PID.TID 0000.0001) %MON obc_N_vVel_max               =  -2.7888213772415E-05
(PID.TID 0000.0001) %MON obc_N_vVel_min               =  -2.7888213772415E-05
(PID.TID 0000.0001) %MON obc_N_vVel_mean              =  -2.7888213772415E-05
(PID.TID 0000.0001) %MON obc_N_vVel_sd                =  -5.6041486500468E-23
(PID.TID 0000.0001) %MON obc_N_vVel_Int               =  -1.8406221089794E+03
(PID.TID 0000.0001) // =======================================================
(PID.TID 0000.0001) // End OBCS MONITOR field statistics
(PID.TID 0000.0001) // =======================================================
 cg2d: Sum(rhs),rhsMax =   3.01298442444928E+00  4.53054198583303E+02
(PID.TID 0000.0001)      cg2d_init_res =   3.63430170853881E-06
(PID.TID 0000.0001)      cg2d_iters(min,last) =      -1      83
(PID.TID 0000.0001)      cg2d_last_res =   9.55566619744540E-12
(PID.TID 0000.0001) // =======================================================
(PID.TID 0000.0001) // Begin MONITOR dynamic field statistics
(PID.TID 0000.0001) // =======================================================
(PID.TID 0000.0001) %MON time_tsnumber                =                    97
(PID.TID 0000.0001) %MON time_secondsf                =   9.7000000000000E+03
(PID.TID 0000.0001) %MON dynstat_eta_max              =   5.7953993724833E+00
(PID.TID 0000.0001) %MON dynstat_eta_min              =  -1.4178763163249E+01
(PID.TID 0000.0001) %MON dynstat_eta_mean             =  -2.5278615625238E+00
(PID.TID 0000.0001) %MON dynstat_eta_sd               =   4.9422000602739E+00
(PID.TID 0000.0001) %MON dynstat_eta_del2             =   1.9058063959825E-01
(PID.TID 0000.0001) %MON dynstat_uvel_max             =   1.7596560628537E-03
(PID.TID 0000.0001) %MON dynstat_uvel_min             =  -1.8893729046736E-03
(PID.TID 0000.0001) %MON dynstat_uvel_mean            =   2.8437145895539E-07
(PID.TID 0000.0001) %MON dynstat_uvel_sd              =   5.7859091881188E-05
(PID.TID 0000.0001) %MON dynstat_uvel_del2            =   3.7024232662587E-07
(PID.TID 0000.0001) %MON dynstat_vvel_max             =   1.8363509436412E-03
(PID.TID 0000.0001) %MON dynstat_vvel_min             =  -1.7434880921590E-03
(PID.TID 0000.0001) %MON dynstat_vvel_mean            =  -4.2975568269878E-05
(PID.TID 0000.0001) %MON dynstat_vvel_sd              =   8.6134159948216E-05
(PID.TID 0000.0001) %MON dynstat_vvel_del2            =   4.6918996542655E-07
(PID.TID 0000.0001) %MON dynstat_wvel_max             =   2.3425697145612E-04
(PID.TID 0000.0001) %MON dynstat_wvel_min             =  -1.7450690775448E-04
(PID.TID 0000.0001) %MON dynstat_wvel_mean            =  -5.0242704513196E-08
(PID.TID 0000.0001) %MON dynstat_wvel_sd              =   3.0245108214411E-05
(PID.TID 0000.0001) %MON dynstat_wvel_del2            =   1.6829259941358E-07
(PID.TID 0000.0001) %MON dynstat_theta_max            =   1.2000000000000E+00
(PID.TID 0000.0001) %MON dynstat_theta_min            =  -1.0000000000000E+00
(PID.TID 0000.0001) %MON dynstat_theta_mean           =   5.6548527138558E-01
(PID.TID 0000.0001) %MON dynstat_theta_sd             =   8.4906445630791E-01
(PID.TID 0000.0001) %MON dynstat_theta_del2           =   2.7161386469146E-06
(PID.TID 0000.0001) %MON dynstat_salt_max             =   3.4700000000000E+01
(PID.TID 0000.0001) %MON dynstat_salt_min             =   3.4000000000000E+01
(PID.TID 0000.0001) %MON dynstat_salt_mean            =   3.4498107378827E+01
(PID.TID 0000.0001) %MON dynstat_salt_sd              =   2.7015706574006E-01
(PID.TID 0000.0001) %MON dynstat_salt_del2            =   8.5757242372712E-07
(PID.TID 0000.0001) %MON advcfl_uvel_max              =   1.8893729046736E-04
(PID.TID 0000.0001) %MON advcfl_vvel_max              =   1.8363509436412E-04
(PID.TID 0000.0001) %MON advcfl_wvel_max              =   1.1712848572806E-03
(PID.TID 0000.0001) %MON advcfl_W_hf_max              =   1.1712848572806E-03
(PID.TID 0000.0001) %MON pe_b_mean                    =  -6.8300414227703E-01
(PID.TID 0000.0001) %MON ke_max                       =   2.3961074466459E-06
(PID.TID 0000.0001) %MON ke_mean                      =   6.2709792469409E-09
(PID.TID 0000.0001) %MON ke_vol                       =   4.6182842632949E+12
(PID.TID 0000.0001) // =======================================================
(PID.TID 0000.0001) // End MONITOR dynamic field statistics
(PID.TID 0000.0001) // =======================================================
(PID.TID 0000.0001) // =======================================================
(PID.TID 0000.0001) // Begin OBCS MONITOR field statistics
(PID.TID 0000.0001) // =======================================================
(PID.TID 0000.0001) %MON obc_N_vVel_max               =  -3.4593039609175E-05
(PID.TID 0000.0001) %MON obc_N_vVel_min               =  -3.4593039609176E-05
(PID.TID 0000.0001) %MON obc_N_vVel_mean              =  -3.4593039609176E-05
(PID.TID 0000.0001) %MON obc_N_vVel_sd                =   0.0000000000000E+00
(PID.TID 0000.0001) %MON obc_N_vVel_Int               =  -2.2831406142056E+03
(PID.TID 0000.0001) // =======================================================
(PID.TID 0000.0001) // End OBCS MONITOR field statistics
(PID.TID 0000.0001) // =======================================================
 cg2d: Sum(rhs),rhsMax =   3.01292962896742E+00  4.53054188905473E+02
(PID.TID 0000.0001)      cg2d_init_res =   3.56472942786365E-06
(PID.TID 0000.0001)      cg2d_iters(min,last) =      -1      83
(PID.TID 0000.0001)      cg2d_last_res =   9.12332913263216E-12
(PID.TID 0000.0001) // =======================================================
(PID.TID 0000.0001) // Begin MONITOR dynamic field statistics
(PID.TID 0000.0001) // =======================================================
(PID.TID 0000.0001) %MON time_tsnumber                =                    98
(PID.TID 0000.0001) %MON time_secondsf                =   9.8000000000000E+03
(PID.TID 0000.0001) %MON dynstat_eta_max              =   5.7954795903518E+00
(PID.TID 0000.0001) %MON dynstat_eta_min              =  -1.4178651128200E+01
(PID.TID 0000.0001) %MON dynstat_eta_mean             =  -2.5278155357058E+00
(PID.TID 0000.0001) %MON dynstat_eta_sd               =   4.9421812713243E+00
(PID.TID 0000.0001) %MON dynstat_eta_del2             =   1.9058063893291E-01
(PID.TID 0000.0001) %MON dynstat_uvel_max             =   1.7784394601978E-03
(PID.TID 0000.0001) %MON dynstat_uvel_min             =  -1.9133966950040E-03
(PID.TID 0000.0001) %MON dynstat_uvel_mean            =   2.0516773714388E-07
(PID.TID 0000.0001) %MON dynstat_uvel_sd              =   5.8225974834121E-05
(PID.TID 0000.0001) %MON dynstat_uvel_del2            =   3.7250827556697E-07
(PID.TID 0000.0001) %MON dynstat_vvel_max             =   1.8569572534695E-03
(PID.TID 0000.0001) %MON dynstat_vvel_min             =  -1.7641512704003E-03
(PID.TID 0000.0001) %MON dynstat_vvel_mean            =  -4.7170012057545E-05
(PID.TID 0000.0001) %MON dynstat_vvel_sd              =   8.6143707463786E-05
(PID.TID 0000.0001) %MON dynstat_vvel_del2            =   4.6726347706810E-07
(PID.TID 0000.0001) %MON dynstat_wvel_max             =   2.3338740184792E-04
(PID.TID 0000.0001) %MON dynstat_wvel_min             =  -1.7655659296525E-04
(PID.TID 0000.0001) %MON dynstat_wvel_mean            =  -3.6868114520353E-08
(PID.TID 0000.0001) %MON dynstat_wvel_sd              =   2.9850948375254E-05
(PID.TID 0000.0001) %MON dynstat_wvel_del2            =   1.6358864255425E-07
(PID.TID 0000.0001) %MON dynstat_theta_max            =   1.2000000000000E+00
(PID.TID 0000.0001) %MON dynstat_theta_min            =  -1.0000000000000E+00
(PID.TID 0000.0001) %MON dynstat_theta_mean           =   5.6548505473334E-01
(PID.TID 0000.0001) %MON dynstat_theta_sd             =   8.4906442088458E-01
(PID.TID 0000.0001) %MON dynstat_theta_del2           =   2.7016779839212E-06
(PID.TID 0000.0001) %MON dynstat_salt_max             =   3.4700000000000E+01
(PID.TID 0000.0001) %MON dynstat_salt_min             =   3.4000000000000E+01
(PID.TID 0000.0001) %MON dynstat_salt_mean            =   3.4498107294081E+01
(PID.TID 0000.0001) %MON dynstat_salt_sd              =   2.7015705620901E-01
(PID.TID 0000.0001) %MON dynstat_salt_del2            =   8.5282220026017E-07
(PID.TID 0000.0001) %MON advcfl_uvel_max              =   1.9133966950040E-04
(PID.TID 0000.0001) %MON advcfl_vvel_max              =   1.8569572534695E-04
(PID.TID 0000.0001) %MON advcfl_wvel_max              =   1.1669370092396E-03
(PID.TID 0000.0001) %MON advcfl_W_hf_max              =   1.1669370092396E-03
(PID.TID 0000.0001) %MON pe_b_mean                    =  -6.8299348032938E-01
(PID.TID 0000.0001) %MON ke_max                       =   2.4492430748467E-06
(PID.TID 0000.0001) %MON ke_mean                      =   6.4803417592549E-09
(PID.TID 0000.0001) %MON ke_vol                       =   4.6182845023186E+12
(PID.TID 0000.0001) // =======================================================
(PID.TID 0000.0001) // End MONITOR dynamic field statistics
(PID.TID 0000.0001) // =======================================================
(PID.TID 0000.0001) // =======================================================
(PID.TID 0000.0001) // Begin OBCS MONITOR field statistics
(PID.TID 0000.0001) // =======================================================
(PID.TID 0000.0001) %MON obc_N_vVel_max               =  -3.9801442432201E-05
(PID.TID 0000.0001) %MON obc_N_vVel_min               =  -3.9801442432202E-05
(PID.TID 0000.0001) %MON obc_N_vVel_mean              =  -3.9801442432201E-05
(PID.TID 0000.0001) %MON obc_N_vVel_sd                =   1.9821977473569E-12
(PID.TID 0000.0001) %MON obc_N_vVel_Int               =  -2.6268952005253E+03
(PID.TID 0000.0001) // =======================================================
(PID.TID 0000.0001) // End OBCS MONITOR field statistics
(PID.TID 0000.0001) // =======================================================
 cg2d: Sum(rhs),rhsMax =   3.01286994905542E+00  4.53054183722703E+02
(PID.TID 0000.0001)      cg2d_init_res =   3.48300006050116E-06
(PID.TID 0000.0001)      cg2d_iters(min,last) =      -1      78
(PID.TID 0000.0001)      cg2d_last_res =   7.47840300008529E-12
(PID.TID 0000.0001) // =======================================================
(PID.TID 0000.0001) // Begin MONITOR dynamic field statistics
(PID.TID 0000.0001) // =======================================================
(PID.TID 0000.0001) %MON time_tsnumber                =                    99
(PID.TID 0000.0001) %MON time_secondsf                =   9.9000000000000E+03
(PID.TID 0000.0001) %MON dynstat_eta_max              =   5.7955643298231E+00
(PID.TID 0000.0001) %MON dynstat_eta_min              =  -1.4178535634111E+01
(PID.TID 0000.0001) %MON dynstat_eta_mean             =  -2.5277654359851E+00
(PID.TID 0000.0001) %MON dynstat_eta_sd               =   4.9421625736093E+00
(PID.TID 0000.0001) %MON dynstat_eta_del2             =   1.9058063825345E-01
(PID.TID 0000.0001) %MON dynstat_uvel_max             =   1.7970319892200E-03
(PID.TID 0000.0001) %MON dynstat_uvel_min             =  -1.9372515946401E-03
(PID.TID 0000.0001) %MON dynstat_uvel_mean            =   1.2485075685014E-07
(PID.TID 0000.0001) %MON dynstat_uvel_sd              =   5.8583958128557E-05
(PID.TID 0000.0001) %MON dynstat_uvel_del2            =   3.7470348340588E-07
(PID.TID 0000.0001) %MON dynstat_vvel_max             =   1.8781727259531E-03
(PID.TID 0000.0001) %MON dynstat_vvel_min             =  -1.7807767702029E-03
(PID.TID 0000.0001) %MON dynstat_vvel_mean            =  -4.9676910969609E-05
(PID.TID 0000.0001) %MON dynstat_vvel_sd              =   8.6112033966071E-05
(PID.TID 0000.0001) %MON dynstat_vvel_del2            =   4.6579082889961E-07
(PID.TID 0000.0001) %MON dynstat_wvel_max             =   2.3097620326835E-04
(PID.TID 0000.0001) %MON dynstat_wvel_min             =  -1.8018884993968E-04
(PID.TID 0000.0001) %MON dynstat_wvel_mean            =  -2.3361198344428E-08
(PID.TID 0000.0001) %MON dynstat_wvel_sd              =   2.9453900553263E-05
(PID.TID 0000.0001) %MON dynstat_wvel_del2            =   1.5916155802907E-07
(PID.TID 0000.0001) %MON dynstat_theta_max            =   1.2000000000000E+00
(PID.TID 0000.0001) %MON dynstat_theta_min            =  -1.0000000000000E+00
(PID.TID 0000.0001) %MON dynstat_theta_mean           =   5.6548483603127E-01
(PID.TID 0000.0001) %MON dynstat_theta_sd             =   8.4906438595411E-01
(PID.TID 0000.0001) %MON dynstat_theta_del2           =   2.6871518458239E-06
(PID.TID 0000.0001) %MON dynstat_salt_max             =   3.4700000000000E+01
(PID.TID 0000.0001) %MON dynstat_salt_min             =   3.4000000000000E+01
(PID.TID 0000.0001) %MON dynstat_salt_mean            =   3.4498107208683E+01
(PID.TID 0000.0001) %MON dynstat_salt_sd              =   2.7015704683549E-01
(PID.TID 0000.0001) %MON dynstat_salt_del2            =   8.4805238556907E-07
(PID.TID 0000.0001) %MON advcfl_uvel_max              =   1.9372515946401E-04
(PID.TID 0000.0001) %MON advcfl_vvel_max              =   1.8781727259531E-04
(PID.TID 0000.0001) %MON advcfl_wvel_max              =   1.1548810163417E-03
(PID.TID 0000.0001) %MON advcfl_W_hf_max              =   1.1548810163417E-03
(PID.TID 0000.0001) %MON pe_b_mean                    =  -6.8298236938860E-01
(PID.TID 0000.0001) %MON ke_max                       =   2.5027829262485E-06
(PID.TID 0000.0001) %MON ke_mean                      =   6.6184140266348E-09
(PID.TID 0000.0001) %MON ke_vol                       =   4.6182847757179E+12
(PID.TID 0000.0001) // =======================================================
(PID.TID 0000.0001) // End MONITOR dynamic field statistics
(PID.TID 0000.0001) // =======================================================
(PID.TID 0000.0001) // =======================================================
(PID.TID 0000.0001) // Begin OBCS MONITOR field statistics
(PID.TID 0000.0001) // =======================================================
(PID.TID 0000.0001) %MON obc_N_vVel_max               =  -4.3467040796234E-05
(PID.TID 0000.0001) %MON obc_N_vVel_min               =  -4.3467040796235E-05
(PID.TID 0000.0001) %MON obc_N_vVel_mean              =  -4.3467040796235E-05
(PID.TID 0000.0001) %MON obc_N_vVel_sd                =  -1.3152171739593E-22
(PID.TID 0000.0001) %MON obc_N_vVel_Int               =  -2.8688246925515E+03
(PID.TID 0000.0001) // =======================================================
(PID.TID 0000.0001) // End OBCS MONITOR field statistics
(PID.TID 0000.0001) // =======================================================
 cg2d: Sum(rhs),rhsMax =   3.01280743078958E+00  4.53054182117616E+02
(PID.TID 0000.0001)      cg2d_init_res =   3.39851761367570E-06
(PID.TID 0000.0001)      cg2d_iters(min,last) =      -1      77
(PID.TID 0000.0001)      cg2d_last_res =   8.01516912340743E-12
(PID.TID 0000.0001) // =======================================================
(PID.TID 0000.0001) // Begin MONITOR dynamic field statistics
(PID.TID 0000.0001) // =======================================================
(PID.TID 0000.0001) %MON time_tsnumber                =                   100
(PID.TID 0000.0001) %MON time_secondsf                =   1.0000000000000E+04
(PID.TID 0000.0001) %MON dynstat_eta_max              =   5.7956508313150E+00
(PID.TID 0000.0001) %MON dynstat_eta_min              =  -1.4178420203930E+01
(PID.TID 0000.0001) %MON dynstat_eta_mean             =  -2.5277129748782E+00
(PID.TID 0000.0001) %MON dynstat_eta_sd               =   4.9421444923231E+00
(PID.TID 0000.0001) %MON dynstat_eta_del2             =   1.9058063754160E-01
(PID.TID 0000.0001) %MON dynstat_uvel_max             =   1.8154387012288E-03
(PID.TID 0000.0001) %MON dynstat_uvel_min             =  -1.9609286718465E-03
(PID.TID 0000.0001) %MON dynstat_uvel_mean            =   4.6093514493273E-08
(PID.TID 0000.0001) %MON dynstat_uvel_sd              =   5.8933832782073E-05
(PID.TID 0000.0001) %MON dynstat_uvel_del2            =   3.7683046486148E-07
(PID.TID 0000.0001) %MON dynstat_vvel_max             =   1.8999598266438E-03
(PID.TID 0000.0001) %MON dynstat_vvel_min             =  -1.7934099566830E-03
(PID.TID 0000.0001) %MON dynstat_vvel_mean            =  -5.0543314092880E-05
(PID.TID 0000.0001) %MON dynstat_vvel_sd              =   8.6069060867865E-05
(PID.TID 0000.0001) %MON dynstat_vvel_del2            =   4.6509401530539E-07
(PID.TID 0000.0001) %MON dynstat_wvel_max             =   2.2357771079713E-04
(PID.TID 0000.0001) %MON dynstat_wvel_min             =  -1.8122550231178E-04
(PID.TID 0000.0001) %MON dynstat_wvel_mean            =  -1.0130624602878E-08
(PID.TID 0000.0001) %MON dynstat_wvel_sd              =   2.9097257667147E-05
(PID.TID 0000.0001) %MON dynstat_wvel_del2            =   1.5552773441598E-07
(PID.TID 0000.0001) %MON dynstat_theta_max            =   1.2000000000000E+00
(PID.TID 0000.0001) %MON dynstat_theta_min            =  -1.0000000000000E+00
(PID.TID 0000.0001) %MON dynstat_theta_mean           =   5.6548461592409E-01
(PID.TID 0000.0001) %MON dynstat_theta_sd             =   8.4906435116250E-01
(PID.TID 0000.0001) %MON dynstat_theta_del2           =   2.6723758926875E-06
(PID.TID 0000.0001) %MON dynstat_salt_max             =   3.4700000000000E+01
(PID.TID 0000.0001) %MON dynstat_salt_min             =   3.4000000000000E+01
(PID.TID 0000.0001) %MON dynstat_salt_mean            =   3.4498107122837E+01
(PID.TID 0000.0001) %MON dynstat_salt_sd              =   2.7015703750789E-01
(PID.TID 0000.0001) %MON dynstat_salt_del2            =   8.4320396855247E-07
(PID.TID 0000.0001) %MON advcfl_uvel_max              =   1.9609286718465E-04
(PID.TID 0000.0001) %MON advcfl_vvel_max              =   1.8999598266438E-04
(PID.TID 0000.0001) %MON advcfl_wvel_max              =   1.1178885539856E-03
(PID.TID 0000.0001) %MON advcfl_W_hf_max              =   1.1178885539856E-03
(PID.TID 0000.0001) %MON pe_b_mean                    =  -6.8297115429469E-01
(PID.TID 0000.0001) %MON ke_max                       =   2.5567012342168E-06
(PID.TID 0000.0001) %MON ke_mean                      =   6.6776176590891E-09
(PID.TID 0000.0001) %MON ke_vol                       =   4.6182850733102E+12
(PID.TID 0000.0001) // =======================================================
(PID.TID 0000.0001) // End MONITOR dynamic field statistics
(PID.TID 0000.0001) // =======================================================
(PID.TID 0000.0001) // =======================================================
(PID.TID 0000.0001) // Begin OBCS MONITOR field statistics
(PID.TID 0000.0001) // =======================================================
(PID.TID 0000.0001) %MON obc_N_vVel_max               =  -4.5592275230374E-05
(PID.TID 0000.0001) %MON obc_N_vVel_min               =  -4.5592275230375E-05
(PID.TID 0000.0001) %MON obc_N_vVel_mean              =  -4.5592275230375E-05
(PID.TID 0000.0001) %MON obc_N_vVel_sd                =  -1.1911400820764E-22
(PID.TID 0000.0001) %MON obc_N_vVel_Int               =  -3.0090901652048E+03
(PID.TID 0000.0001) // =======================================================
(PID.TID 0000.0001) // End OBCS MONITOR field statistics
(PID.TID 0000.0001) // =======================================================
 cg2d: Sum(rhs),rhsMax =   3.01274405718359E+00  4.53054183149898E+02
(PID.TID 0000.0001)      cg2d_init_res =   3.32142239540835E-06
(PID.TID 0000.0001)      cg2d_iters(min,last) =      -1      77
(PID.TID 0000.0001)      cg2d_last_res =   6.63772644259247E-12
(PID.TID 0000.0001) // =======================================================
(PID.TID 0000.0001) // Begin MONITOR dynamic field statistics
(PID.TID 0000.0001) // =======================================================
(PID.TID 0000.0001) %MON time_tsnumber                =                   101
(PID.TID 0000.0001) %MON time_secondsf                =   1.0100000000000E+04
(PID.TID 0000.0001) %MON dynstat_eta_max              =   5.7957364755374E+00
(PID.TID 0000.0001) %MON dynstat_eta_min              =  -1.4178308107492E+01
(PID.TID 0000.0001) %MON dynstat_eta_mean             =  -2.5276598108649E+00
(PID.TID 0000.0001) %MON dynstat_eta_sd               =   4.9421274968359E+00
(PID.TID 0000.0001) %MON dynstat_eta_del2             =   1.9058063678513E-01
(PID.TID 0000.0001) %MON dynstat_uvel_max             =   1.8336619724870E-03
(PID.TID 0000.0001) %MON dynstat_uvel_min             =  -1.9846514531889E-03
(PID.TID 0000.0001) %MON dynstat_uvel_mean            =  -2.8628673560378E-08
(PID.TID 0000.0001) %MON dynstat_uvel_sd              =   5.9276342553894E-05
(PID.TID 0000.0001) %MON dynstat_uvel_del2            =   3.7889146595068E-07
(PID.TID 0000.0001) %MON dynstat_vvel_max             =   1.9222605008835E-03
(PID.TID 0000.0001) %MON dynstat_vvel_min             =  -1.8021677206983E-03
(PID.TID 0000.0001) %MON dynstat_vvel_mean            =  -4.9861276513418E-05
(PID.TID 0000.0001) %MON dynstat_vvel_sd              =   8.6044077467401E-05
(PID.TID 0000.0001) %MON dynstat_vvel_del2            =   4.6537556113271E-07
(PID.TID 0000.0001) %MON dynstat_wvel_max             =   2.1132751045633E-04
(PID.TID 0000.0001) %MON dynstat_wvel_min             =  -1.9470079162612E-04
(PID.TID 0000.0001) %MON dynstat_wvel_mean            =   2.4529356055605E-09
(PID.TID 0000.0001) %MON dynstat_wvel_sd              =   2.8818037993955E-05
(PID.TID 0000.0001) %MON dynstat_wvel_del2            =   1.5310362190244E-07
(PID.TID 0000.0001) %MON dynstat_theta_max            =   1.2000000000000E+00
(PID.TID 0000.0001) %MON dynstat_theta_min            =  -1.0000000000000E+00
(PID.TID 0000.0001) %MON dynstat_theta_mean           =   5.6548439505184E-01
(PID.TID 0000.0001) %MON dynstat_theta_sd             =   8.4906431626210E-01
(PID.TID 0000.0001) %MON dynstat_theta_del2           =   2.6572183454809E-06
(PID.TID 0000.0001) %MON dynstat_salt_max             =   3.4700000000000E+01
(PID.TID 0000.0001) %MON dynstat_salt_min             =   3.4000000000000E+01
(PID.TID 0000.0001) %MON dynstat_salt_mean            =   3.4498107036747E+01
(PID.TID 0000.0001) %MON dynstat_salt_sd              =   2.7015702814776E-01
(PID.TID 0000.0001) %MON dynstat_salt_del2            =   8.3823476102040E-07
(PID.TID 0000.0001) %MON advcfl_uvel_max              =   1.9846514531889E-04
(PID.TID 0000.0001) %MON advcfl_vvel_max              =   1.9222605008835E-04
(PID.TID 0000.0001) %MON advcfl_wvel_max              =   1.0566375522816E-03
(PID.TID 0000.0001) %MON advcfl_W_hf_max              =   1.0566375522816E-03
(PID.TID 0000.0001) %MON pe_b_mean                    =  -6.8296015823872E-01
(PID.TID 0000.0001) %MON ke_max                       =   2.6109592618769E-06
(PID.TID 0000.0001) %MON ke_mean                      =   6.6608844054458E-09
(PID.TID 0000.0001) %MON ke_vol                       =   4.6182853849292E+12
(PID.TID 0000.0001) // =======================================================
(PID.TID 0000.0001) // End MONITOR dynamic field statistics
(PID.TID 0000.0001) // =======================================================
(PID.TID 0000.0001) // =======================================================
(PID.TID 0000.0001) // Begin OBCS MONITOR field statistics
(PID.TID 0000.0001) // =======================================================
(PID.TID 0000.0001) %MON obc_N_vVel_max               =  -4.6224878478947E-05
(PID.TID 0000.0001) %MON obc_N_vVel_min               =  -4.6224878478949E-05
(PID.TID 0000.0001) %MON obc_N_vVel_mean              =  -4.6224878478949E-05
(PID.TID 0000.0001) %MON obc_N_vVel_sd                =  -1.1001502146955E-22
(PID.TID 0000.0001) %MON obc_N_vVel_Int               =  -3.0508419796106E+03
(PID.TID 0000.0001) // =======================================================
(PID.TID 0000.0001) // End OBCS MONITOR field statistics
(PID.TID 0000.0001) // =======================================================
 cg2d: Sum(rhs),rhsMax =   3.01268169429538E+00  4.53054185872127E+02
(PID.TID 0000.0001)      cg2d_init_res =   3.26099678439456E-06
(PID.TID 0000.0001)      cg2d_iters(min,last) =      -1      77
(PID.TID 0000.0001)      cg2d_last_res =   7.82222019179614E-12
(PID.TID 0000.0001) // =======================================================
(PID.TID 0000.0001) // Begin MONITOR dynamic field statistics
(PID.TID 0000.0001) // =======================================================
(PID.TID 0000.0001) %MON time_tsnumber                =                   102
(PID.TID 0000.0001) %MON time_secondsf                =   1.0200000000000E+04
(PID.TID 0000.0001) %MON dynstat_eta_max              =   5.7958188566543E+00
(PID.TID 0000.0001) %MON dynstat_eta_min              =  -1.4178202281799E+01
(PID.TID 0000.0001) %MON dynstat_eta_mean             =  -2.5276075042608E+00
(PID.TID 0000.0001) %MON dynstat_eta_sd               =   4.9421119906925E+00
(PID.TID 0000.0001) %MON dynstat_eta_del2             =   1.9058063597050E-01
(PID.TID 0000.0001) %MON dynstat_uvel_max             =   1.8517015446715E-03
(PID.TID 0000.0001) %MON dynstat_uvel_min             =  -2.0085143199338E-03
(PID.TID 0000.0001) %MON dynstat_uvel_mean            =  -9.7136882067073E-08
(PID.TID 0000.0001) %MON dynstat_uvel_sd              =   5.9612165952218E-05
(PID.TID 0000.0001) %MON dynstat_uvel_del2            =   3.8088845229871E-07
(PID.TID 0000.0001) %MON dynstat_vvel_max             =   1.9459150475747E-03
(PID.TID 0000.0001) %MON dynstat_vvel_min             =  -1.8072302742365E-03
(PID.TID 0000.0001) %MON dynstat_vvel_mean            =  -4.7761921249017E-05
(PID.TID 0000.0001) %MON dynstat_vvel_sd              =   8.6061643621616E-05
(PID.TID 0000.0001) %MON dynstat_vvel_del2            =   4.6669623166781E-07
(PID.TID 0000.0001) %MON dynstat_wvel_max             =   1.9449735740600E-04
(PID.TID 0000.0001) %MON dynstat_wvel_min             =  -2.1116376109078E-04
(PID.TID 0000.0001) %MON dynstat_wvel_mean            =   1.4064579654993E-08
(PID.TID 0000.0001) %MON dynstat_wvel_sd              =   2.8641782007117E-05
(PID.TID 0000.0001) %MON dynstat_wvel_del2            =   1.5213020339219E-07
(PID.TID 0000.0001) %MON dynstat_theta_max            =   1.2000000000000E+00
(PID.TID 0000.0001) %MON dynstat_theta_min            =  -1.0000000000000E+00
(PID.TID 0000.0001) %MON dynstat_theta_mean           =   5.6548417403138E-01
(PID.TID 0000.0001) %MON dynstat_theta_sd             =   8.4906428097972E-01
(PID.TID 0000.0001) %MON dynstat_theta_del2           =   2.6416109430450E-06
(PID.TID 0000.0001) %MON dynstat_salt_max             =   3.4700000000000E+01
(PID.TID 0000.0001) %MON dynstat_salt_min             =   3.4000000000000E+01
(PID.TID 0000.0001) %MON dynstat_salt_mean            =   3.4498106950610E+01
(PID.TID 0000.0001) %MON dynstat_salt_sd              =   2.7015701866913E-01
(PID.TID 0000.0001) %MON dynstat_salt_del2            =   8.3312291162939E-07
(PID.TID 0000.0001) %MON advcfl_uvel_max              =   2.0085143199338E-04
(PID.TID 0000.0001) %MON advcfl_vvel_max              =   1.9459150475747E-04
(PID.TID 0000.0001) %MON advcfl_wvel_max              =   1.0558188054539E-03
(PID.TID 0000.0001) %MON advcfl_W_hf_max              =   1.0558188054539E-03
(PID.TID 0000.0001) %MON pe_b_mean                    =  -6.8294967478269E-01
(PID.TID 0000.0001) %MON ke_max                       =   2.6655061964605E-06
(PID.TID 0000.0001) %MON ke_mean                      =   6.5797710062867E-09
(PID.TID 0000.0001) %MON ke_vol                       =   4.6182857007235E+12
(PID.TID 0000.0001) // =======================================================
(PID.TID 0000.0001) // End MONITOR dynamic field statistics
(PID.TID 0000.0001) // =======================================================
(PID.TID 0000.0001) // =======================================================
(PID.TID 0000.0001) // Begin OBCS MONITOR field statistics
(PID.TID 0000.0001) // =======================================================
(PID.TID 0000.0001) %MON obc_N_vVel_max               =  -4.5453198262264E-05
(PID.TID 0000.0001) %MON obc_N_vVel_min               =  -4.5453198262265E-05
(PID.TID 0000.0001) %MON obc_N_vVel_mean              =  -4.5453198262264E-05
(PID.TID 0000.0001) %MON obc_N_vVel_sd                =   1.0409642656905E-11
(PID.TID 0000.0001) %MON obc_N_vVel_Int               =  -2.9999110853094E+03
(PID.TID 0000.0001) // =======================================================
(PID.TID 0000.0001) // End OBCS MONITOR field statistics
(PID.TID 0000.0001) // =======================================================
 cg2d: Sum(rhs),rhsMax =   3.01262204440893E+00  4.53054189370939E+02
(PID.TID 0000.0001)      cg2d_init_res =   3.22437850294379E-06
(PID.TID 0000.0001)      cg2d_iters(min,last) =      -1      78
(PID.TID 0000.0001)      cg2d_last_res =   7.26478437074261E-12
(PID.TID 0000.0001) // =======================================================
(PID.TID 0000.0001) // Begin MONITOR dynamic field statistics
(PID.TID 0000.0001) // =======================================================
(PID.TID 0000.0001) %MON time_tsnumber                =                   103
(PID.TID 0000.0001) %MON time_secondsf                =   1.0300000000000E+04
(PID.TID 0000.0001) %MON dynstat_eta_max              =   5.7958958371197E+00
(PID.TID 0000.0001) %MON dynstat_eta_min              =  -1.4178105268636E+01
(PID.TID 0000.0001) %MON dynstat_eta_mean             =  -2.5275574781680E+00
(PID.TID 0000.0001) %MON dynstat_eta_sd               =   4.9420983045529E+00
(PID.TID 0000.0001) %MON dynstat_eta_del2             =   1.9058063508803E-01
(PID.TID 0000.0001) %MON dynstat_uvel_max             =   1.8695546116234E-03
(PID.TID 0000.0001) %MON dynstat_uvel_min             =  -2.0321874056892E-03
(PID.TID 0000.0001) %MON dynstat_uvel_mean            =  -1.5762873810057E-07
(PID.TID 0000.0001) %MON dynstat_uvel_sd              =   5.9941902456753E-05
(PID.TID 0000.0001) %MON dynstat_uvel_del2            =   3.8282311361717E-07
(PID.TID 0000.0001) %MON dynstat_vvel_max             =   1.9701939426913E-03
(PID.TID 0000.0001) %MON dynstat_vvel_min             =  -1.8088322390479E-03
(PID.TID 0000.0001) %MON dynstat_vvel_mean            =  -4.4408776597483E-05
(PID.TID 0000.0001) %MON dynstat_vvel_sd              =   8.6138381187510E-05
(PID.TID 0000.0001) %MON dynstat_vvel_del2            =   4.6897375629677E-07
(PID.TID 0000.0001) %MON dynstat_wvel_max             =   1.7363929390075E-04
(PID.TID 0000.0001) %MON dynstat_wvel_min             =  -2.2543864411140E-04
(PID.TID 0000.0001) %MON dynstat_wvel_mean            =   2.4432012677456E-08
(PID.TID 0000.0001) %MON dynstat_wvel_sd              =   2.8578935887218E-05
(PID.TID 0000.0001) %MON dynstat_wvel_del2            =   1.5262585729509E-07
(PID.TID 0000.0001) %MON dynstat_theta_max            =   1.2000000000000E+00
(PID.TID 0000.0001) %MON dynstat_theta_min            =  -1.0000000000000E+00
(PID.TID 0000.0001) %MON dynstat_theta_mean           =   5.6548395343993E-01
(PID.TID 0000.0001) %MON dynstat_theta_sd             =   8.4906424505682E-01
(PID.TID 0000.0001) %MON dynstat_theta_del2           =   2.6255613745245E-06
(PID.TID 0000.0001) %MON dynstat_salt_max             =   3.4700000000000E+01
(PID.TID 0000.0001) %MON dynstat_salt_min             =   3.4000000000000E+01
(PID.TID 0000.0001) %MON dynstat_salt_mean            =   3.4498106864609E+01
(PID.TID 0000.0001) %MON dynstat_salt_sd              =   2.7015700898990E-01
(PID.TID 0000.0001) %MON dynstat_salt_del2            =   8.2787091917857E-07
(PID.TID 0000.0001) %MON advcfl_uvel_max              =   2.0321874056892E-04
(PID.TID 0000.0001) %MON advcfl_vvel_max              =   1.9701939426913E-04
(PID.TID 0000.0001) %MON advcfl_wvel_max              =   1.1271932205570E-03
(PID.TID 0000.0001) %MON advcfl_W_hf_max              =   1.1271932205570E-03
(PID.TID 0000.0001) %MON pe_b_mean                    =  -6.8293996132989E-01
(PID.TID 0000.0001) %MON ke_max                       =   2.7202802567277E-06
(PID.TID 0000.0001) %MON ke_mean                      =   6.4518514799392E-09
(PID.TID 0000.0001) %MON ke_vol                       =   4.6182860114247E+12
(PID.TID 0000.0001) // =======================================================
(PID.TID 0000.0001) // End MONITOR dynamic field statistics
(PID.TID 0000.0001) // =======================================================
(PID.TID 0000.0001) // =======================================================
(PID.TID 0000.0001) // Begin OBCS MONITOR field statistics
(PID.TID 0000.0001) // =======================================================
(PID.TID 0000.0001) %MON obc_N_vVel_max               =  -4.3400727506751E-05
(PID.TID 0000.0001) %MON obc_N_vVel_min               =  -4.3400727506752E-05
(PID.TID 0000.0001) %MON obc_N_vVel_mean              =  -4.3400727506752E-05
(PID.TID 0000.0001) %MON obc_N_vVel_sd                =  -1.3193530770221E-22
(PID.TID 0000.0001) %MON obc_N_vVel_Int               =  -2.8644480154456E+03
(PID.TID 0000.0001) // =======================================================
(PID.TID 0000.0001) // End OBCS MONITOR field statistics
(PID.TID 0000.0001) // =======================================================
 cg2d: Sum(rhs),rhsMax =   3.01256660754527E+00  4.53054192792398E+02
(PID.TID 0000.0001)      cg2d_init_res =   3.21495841900909E-06
(PID.TID 0000.0001)      cg2d_iters(min,last) =      -1      78
(PID.TID 0000.0001)      cg2d_last_res =   9.43439398001540E-12
(PID.TID 0000.0001) // =======================================================
(PID.TID 0000.0001) // Begin MONITOR dynamic field statistics
(PID.TID 0000.0001) // =======================================================
(PID.TID 0000.0001) %MON time_tsnumber                =                   104
(PID.TID 0000.0001) %MON time_secondsf                =   1.0400000000000E+04
(PID.TID 0000.0001) %MON dynstat_eta_max              =   5.7959655914340E+00
(PID.TID 0000.0001) %MON dynstat_eta_min              =  -1.4178019167097E+01
(PID.TID 0000.0001) %MON dynstat_eta_mean             =  -2.5275109863236E+00
(PID.TID 0000.0001) %MON dynstat_eta_sd               =   4.9420866916130E+00
(PID.TID 0000.0001) %MON dynstat_eta_del2             =   1.9058063412868E-01
(PID.TID 0000.0001) %MON dynstat_uvel_max             =   1.8872160783978E-03
(PID.TID 0000.0001) %MON dynstat_uvel_min             =  -2.0556641469591E-03
(PID.TID 0000.0001) %MON dynstat_uvel_mean            =  -2.0872951943662E-07
(PID.TID 0000.0001) %MON dynstat_uvel_sd              =   6.0266062967350E-05
(PID.TID 0000.0001) %MON dynstat_uvel_del2            =   3.8469687524668E-07
(PID.TID 0000.0001) %MON dynstat_vvel_max             =   1.9949266390036E-03
(PID.TID 0000.0001) %MON dynstat_vvel_min             =  -1.8106191066511E-03
(PID.TID 0000.0001) %MON dynstat_vvel_mean            =  -3.9990628349295E-05
(PID.TID 0000.0001) %MON dynstat_vvel_sd              =   8.6281078027931E-05
(PID.TID 0000.0001) %MON dynstat_vvel_del2            =   4.7200242336738E-07
(PID.TID 0000.0001) %MON dynstat_wvel_max             =   1.5662826448418E-04
(PID.TID 0000.0001) %MON dynstat_wvel_min             =  -2.3655461573701E-04
(PID.TID 0000.0001) %MON dynstat_wvel_mean            =   3.3339216577708E-08
(PID.TID 0000.0001) %MON dynstat_wvel_sd              =   2.8623718606300E-05
(PID.TID 0000.0001) %MON dynstat_wvel_del2            =   1.5438844988210E-07
(PID.TID 0000.0001) %MON dynstat_theta_max            =   1.2000000000000E+00
(PID.TID 0000.0001) %MON dynstat_theta_min            =  -1.0000000000000E+00
(PID.TID 0000.0001) %MON dynstat_theta_mean           =   5.6548373380004E-01
(PID.TID 0000.0001) %MON dynstat_theta_sd             =   8.4906420833188E-01
(PID.TID 0000.0001) %MON dynstat_theta_del2           =   2.6091453246804E-06
(PID.TID 0000.0001) %MON dynstat_salt_max             =   3.4700000000000E+01
(PID.TID 0000.0001) %MON dynstat_salt_min             =   3.4000000000000E+01
(PID.TID 0000.0001) %MON dynstat_salt_mean            =   3.4498106778911E+01
(PID.TID 0000.0001) %MON dynstat_salt_sd              =   2.7015699905935E-01
(PID.TID 0000.0001) %MON dynstat_salt_del2            =   8.2250312226092E-07
(PID.TID 0000.0001) %MON advcfl_uvel_max              =   2.0556641469591E-04
(PID.TID 0000.0001) %MON advcfl_vvel_max              =   1.9949266390036E-04
(PID.TID 0000.0001) %MON advcfl_wvel_max              =   1.1827730786851E-03
(PID.TID 0000.0001) %MON advcfl_W_hf_max              =   1.1827730786851E-03
(PID.TID 0000.0001) %MON pe_b_mean                    =  -6.8293123412304E-01
(PID.TID 0000.0001) %MON ke_max                       =   2.7752101191399E-06
(PID.TID 0000.0001) %MON ke_mean                      =   6.2977911725300E-09
(PID.TID 0000.0001) %MON ke_vol                       =   4.6182863085797E+12
(PID.TID 0000.0001) // =======================================================
(PID.TID 0000.0001) // End MONITOR dynamic field statistics
(PID.TID 0000.0001) // =======================================================
(PID.TID 0000.0001) // =======================================================
(PID.TID 0000.0001) // Begin OBCS MONITOR field statistics
(PID.TID 0000.0001) // =======================================================
(PID.TID 0000.0001) %MON obc_N_vVel_max               =  -4.0219889543262E-05
(PID.TID 0000.0001) %MON obc_N_vVel_min               =  -4.0219889543262E-05
(PID.TID 0000.0001) %MON obc_N_vVel_mean              =  -4.0219889543262E-05
(PID.TID 0000.0001) %MON obc_N_vVel_sd                =   4.7258730980562E-12
(PID.TID 0000.0001) %MON obc_N_vVel_Int               =  -2.6545127098553E+03
(PID.TID 0000.0001) // =======================================================
(PID.TID 0000.0001) // End OBCS MONITOR field statistics
(PID.TID 0000.0001) // =======================================================
 cg2d: Sum(rhs),rhsMax =   3.01251665167735E+00  4.53054195366411E+02
(PID.TID 0000.0001)      cg2d_init_res =   3.23182346065214E-06
(PID.TID 0000.0001)      cg2d_iters(min,last) =      -1      83
(PID.TID 0000.0001)      cg2d_last_res =   7.21124161850357E-12
(PID.TID 0000.0001) // =======================================================
(PID.TID 0000.0001) // Begin MONITOR dynamic field statistics
(PID.TID 0000.0001) // =======================================================
(PID.TID 0000.0001) %MON time_tsnumber                =                   105
(PID.TID 0000.0001) %MON time_secondsf                =   1.0500000000000E+04
(PID.TID 0000.0001) %MON dynstat_eta_max              =   5.7960266401418E+00
(PID.TID 0000.0001) %MON dynstat_eta_min              =  -1.4177945604654E+01
(PID.TID 0000.0001) %MON dynstat_eta_mean             =  -2.5274690882474E+00
(PID.TID 0000.0001) %MON dynstat_eta_sd               =   4.9420773257610E+00
(PID.TID 0000.0001) %MON dynstat_eta_del2             =   1.9058063308569E-01
(PID.TID 0000.0001) %MON dynstat_uvel_max             =   1.9046788307744E-03
(PID.TID 0000.0001) %MON dynstat_uvel_min             =  -2.0789382503004E-03
(PID.TID 0000.0001) %MON dynstat_uvel_mean            =  -2.4951975882667E-07
(PID.TID 0000.0001) %MON dynstat_uvel_sd              =   6.0585064609956E-05
(PID.TID 0000.0001) %MON dynstat_uvel_del2            =   3.8651091873141E-07
(PID.TID 0000.0001) %MON dynstat_vvel_max             =   2.0199472914655E-03
(PID.TID 0000.0001) %MON dynstat_vvel_min             =  -1.8224015677646E-03
(PID.TID 0000.0001) %MON dynstat_vvel_mean            =  -3.4714141220239E-05
(PID.TID 0000.0001) %MON dynstat_vvel_sd              =   8.6486352351577E-05
(PID.TID 0000.0001) %MON dynstat_vvel_del2            =   4.7548905657049E-07
(PID.TID 0000.0001) %MON dynstat_wvel_max             =   1.6999280310160E-04
(PID.TID 0000.0001) %MON dynstat_wvel_min             =  -2.4210696870968E-04
(PID.TID 0000.0001) %MON dynstat_wvel_mean            =   4.0628992613861E-08
(PID.TID 0000.0001) %MON dynstat_wvel_sd              =   2.8755781879298E-05
(PID.TID 0000.0001) %MON dynstat_wvel_del2            =   1.5704689514279E-07
(PID.TID 0000.0001) %MON dynstat_theta_max            =   1.2000000000000E+00
(PID.TID 0000.0001) %MON dynstat_theta_min            =  -1.0000000000000E+00
(PID.TID 0000.0001) %MON dynstat_theta_mean           =   5.6548351556894E-01
(PID.TID 0000.0001) %MON dynstat_theta_sd             =   8.4906417068831E-01
(PID.TID 0000.0001) %MON dynstat_theta_del2           =   2.5924941115158E-06
(PID.TID 0000.0001) %MON dynstat_salt_max             =   3.4700000000000E+01
(PID.TID 0000.0001) %MON dynstat_salt_min             =   3.4000000000000E+01
(PID.TID 0000.0001) %MON dynstat_salt_mean            =   3.4498106693660E+01
(PID.TID 0000.0001) %MON dynstat_salt_sd              =   2.7015698884077E-01
(PID.TID 0000.0001) %MON dynstat_salt_del2            =   8.1706174042834E-07
(PID.TID 0000.0001) %MON advcfl_uvel_max              =   2.0789382503004E-04
(PID.TID 0000.0001) %MON advcfl_vvel_max              =   2.0199472914655E-04
(PID.TID 0000.0001) %MON advcfl_wvel_max              =   1.2105348435484E-03
(PID.TID 0000.0001) %MON advcfl_W_hf_max              =   1.2105348435484E-03
(PID.TID 0000.0001) %MON pe_b_mean                    =  -6.8292366481988E-01
(PID.TID 0000.0001) %MON ke_max                       =   2.8302164891688E-06
(PID.TID 0000.0001) %MON ke_mean                      =   6.1384899372715E-09
(PID.TID 0000.0001) %MON ke_vol                       =   4.6182865847412E+12
(PID.TID 0000.0001) // =======================================================
(PID.TID 0000.0001) // End MONITOR dynamic field statistics
(PID.TID 0000.0001) // =======================================================
(PID.TID 0000.0001) // =======================================================
(PID.TID 0000.0001) // Begin OBCS MONITOR field statistics
(PID.TID 0000.0001) // =======================================================
(PID.TID 0000.0001) %MON obc_N_vVel_max               =  -3.6085482156485E-05
(PID.TID 0000.0001) %MON obc_N_vVel_min               =  -3.6085482156485E-05
(PID.TID 0000.0001) %MON obc_N_vVel_mean              =  -3.6085482156485E-05
(PID.TID 0000.0001) %MON obc_N_vVel_sd                =   8.4220387986771E-12
(PID.TID 0000.0001) %MON obc_N_vVel_Int               =  -2.3816418223280E+03
(PID.TID 0000.0001) // =======================================================
(PID.TID 0000.0001) // End OBCS MONITOR field statistics
(PID.TID 0000.0001) // =======================================================
 cg2d: Sum(rhs),rhsMax =   3.01247319197662E+00  4.53054196426027E+02
(PID.TID 0000.0001)      cg2d_init_res =   3.26996592067488E-06
(PID.TID 0000.0001)      cg2d_iters(min,last) =      -1      79
(PID.TID 0000.0001)      cg2d_last_res =   9.89102194698210E-12
(PID.TID 0000.0001) // =======================================================
(PID.TID 0000.0001) // Begin MONITOR dynamic field statistics
(PID.TID 0000.0001) // =======================================================
(PID.TID 0000.0001) %MON time_tsnumber                =                   106
(PID.TID 0000.0001) %MON time_secondsf                =   1.0600000000000E+04
(PID.TID 0000.0001) %MON dynstat_eta_max              =   5.7960778621507E+00
(PID.TID 0000.0001) %MON dynstat_eta_min              =  -1.4177885724187E+01
(PID.TID 0000.0001) %MON dynstat_eta_mean             =  -2.5274326319369E+00
(PID.TID 0000.0001) %MON dynstat_eta_sd               =   4.9420703021674E+00
(PID.TID 0000.0001) %MON dynstat_eta_del2             =   1.9058063196176E-01
(PID.TID 0000.0001) %MON dynstat_uvel_max             =   1.9219341889372E-03
(PID.TID 0000.0001) %MON dynstat_uvel_min             =  -2.1020038451305E-03
(PID.TID 0000.0001) %MON dynstat_uvel_mean            =  -2.7951826902559E-07
(PID.TID 0000.0001) %MON dynstat_uvel_sd              =   6.0899230688417E-05
(PID.TID 0000.0001) %MON dynstat_uvel_del2            =   3.8826621025481E-07
(PID.TID 0000.0001) %MON dynstat_vvel_max             =   2.0450855984535E-03
(PID.TID 0000.0001) %MON dynstat_vvel_min             =  -1.8335230243878E-03
(PID.TID 0000.0001) %MON dynstat_vvel_mean            =  -2.8796479461425E-05
(PID.TID 0000.0001) %MON dynstat_vvel_sd              =   8.6741804923407E-05
(PID.TID 0000.0001) %MON dynstat_vvel_del2            =   4.7909778656803E-07
(PID.TID 0000.0001) %MON dynstat_wvel_max             =   1.8425682866706E-04
(PID.TID 0000.0001) %MON dynstat_wvel_min             =  -2.4202562268996E-04
(PID.TID 0000.0001) %MON dynstat_wvel_mean            =   4.6202969982334E-08
(PID.TID 0000.0001) %MON dynstat_wvel_sd              =   2.8944162908012E-05
(PID.TID 0000.0001) %MON dynstat_wvel_del2            =   1.6014066615350E-07
(PID.TID 0000.0001) %MON dynstat_theta_max            =   1.2000000000000E+00
(PID.TID 0000.0001) %MON dynstat_theta_min            =  -1.0000000000000E+00
(PID.TID 0000.0001) %MON dynstat_theta_mean           =   5.6548329912961E-01
(PID.TID 0000.0001) %MON dynstat_theta_sd             =   8.4906413201223E-01
(PID.TID 0000.0001) %MON dynstat_theta_del2           =   2.5757770914840E-06
(PID.TID 0000.0001) %MON dynstat_salt_max             =   3.4700000000000E+01
(PID.TID 0000.0001) %MON dynstat_salt_min             =   3.4000000000000E+01
(PID.TID 0000.0001) %MON dynstat_salt_mean            =   3.4498106608979E+01
(PID.TID 0000.0001) %MON dynstat_salt_sd              =   2.7015697829845E-01
(PID.TID 0000.0001) %MON dynstat_salt_del2            =   8.1160123126598E-07
(PID.TID 0000.0001) %MON advcfl_uvel_max              =   2.1020038451305E-04
(PID.TID 0000.0001) %MON advcfl_vvel_max              =   2.0450855984535E-04
(PID.TID 0000.0001) %MON advcfl_wvel_max              =   1.2101281134498E-03
(PID.TID 0000.0001) %MON advcfl_W_hf_max              =   1.2101281134498E-03
(PID.TID 0000.0001) %MON pe_b_mean                    =  -6.8291737862540E-01
(PID.TID 0000.0001) %MON ke_max                       =   2.8852141165772E-06
(PID.TID 0000.0001) %MON ke_mean                      =   5.9926134005883E-09
(PID.TID 0000.0001) %MON ke_vol                       =   4.6182868336158E+12
(PID.TID 0000.0001) // =======================================================
(PID.TID 0000.0001) // End MONITOR dynamic field statistics
(PID.TID 0000.0001) // =======================================================
(PID.TID 0000.0001) // =======================================================
(PID.TID 0000.0001) // Begin OBCS MONITOR field statistics
(PID.TID 0000.0001) // =======================================================
(PID.TID 0000.0001) %MON obc_N_vVel_max               =  -3.1187877437552E-05
(PID.TID 0000.0001) %MON obc_N_vVel_min               =  -3.1187877437553E-05
(PID.TID 0000.0001) %MON obc_N_vVel_mean              =  -3.1187877437553E-05
(PID.TID 0000.0001) %MON obc_N_vVel_sd                =  -4.7562885221799E-23
(PID.TID 0000.0001) %MON obc_N_vVel_Int               =  -2.0583999108785E+03
(PID.TID 0000.0001) // =======================================================
(PID.TID 0000.0001) // End OBCS MONITOR field statistics
(PID.TID 0000.0001) // =======================================================
 cg2d: Sum(rhs),rhsMax =   3.01243697899592E+00  4.53054195422475E+02
(PID.TID 0000.0001)      cg2d_init_res =   3.32181597897389E-06
(PID.TID 0000.0001)      cg2d_iters(min,last) =      -1      79
(PID.TID 0000.0001)      cg2d_last_res =   8.40323927179516E-12
(PID.TID 0000.0001) // =======================================================
(PID.TID 0000.0001) // Begin MONITOR dynamic field statistics
(PID.TID 0000.0001) // =======================================================
(PID.TID 0000.0001) %MON time_tsnumber                =                   107
(PID.TID 0000.0001) %MON time_secondsf                =   1.0700000000000E+04
(PID.TID 0000.0001) %MON dynstat_eta_max              =   5.7961185156988E+00
(PID.TID 0000.0001) %MON dynstat_eta_min              =  -1.4177840181582E+01
(PID.TID 0000.0001) %MON dynstat_eta_mean             =  -2.5274022440369E+00
(PID.TID 0000.0001) %MON dynstat_eta_sd               =   4.9420656400682E+00
(PID.TID 0000.0001) %MON dynstat_eta_del2             =   1.9058063075265E-01
(PID.TID 0000.0001) %MON dynstat_uvel_max             =   1.9389722035559E-03
(PID.TID 0000.0001) %MON dynstat_uvel_min             =  -2.1248556331590E-03
(PID.TID 0000.0001) %MON dynstat_uvel_mean            =  -2.9867621513880E-07
(PID.TID 0000.0001) %MON dynstat_uvel_sd              =   6.1208792732101E-05
(PID.TID 0000.0001) %MON dynstat_uvel_del2            =   3.8996353548676E-07
(PID.TID 0000.0001) %MON dynstat_vvel_max             =   2.0701720371807E-03
(PID.TID 0000.0001) %MON dynstat_vvel_min             =  -1.8441474996802E-03
(PID.TID 0000.0001) %MON dynstat_vvel_mean            =  -2.2458147644266E-05
(PID.TID 0000.0001) %MON dynstat_vvel_sd              =   8.7028406489393E-05
(PID.TID 0000.0001) %MON dynstat_vvel_del2            =   4.8249592598266E-07
(PID.TID 0000.0001) %MON dynstat_wvel_max             =   1.9566538406824E-04
(PID.TID 0000.0001) %MON dynstat_wvel_min             =  -2.3638230577636E-04
(PID.TID 0000.0001) %MON dynstat_wvel_mean            =   5.0020256031037E-08
(PID.TID 0000.0001) %MON dynstat_wvel_sd              =   2.9152521339195E-05
(PID.TID 0000.0001) %MON dynstat_wvel_del2            =   1.6319997894276E-07
(PID.TID 0000.0001) %MON dynstat_theta_max            =   1.2000000000000E+00
(PID.TID 0000.0001) %MON dynstat_theta_min            =  -1.0000000000000E+00
(PID.TID 0000.0001) %MON dynstat_theta_mean           =   5.6548308478456E-01
(PID.TID 0000.0001) %MON dynstat_theta_sd             =   8.4906409216980E-01
(PID.TID 0000.0001) %MON dynstat_theta_del2           =   2.5591795427156E-06
(PID.TID 0000.0001) %MON dynstat_salt_max             =   3.4700000000000E+01
(PID.TID 0000.0001) %MON dynstat_salt_min             =   3.4000000000000E+01
(PID.TID 0000.0001) %MON dynstat_salt_mean            =   3.4498106524965E+01
(PID.TID 0000.0001) %MON dynstat_salt_sd              =   2.7015696738999E-01
(PID.TID 0000.0001) %MON dynstat_salt_del2            =   8.0618123080086E-07
(PID.TID 0000.0001) %MON advcfl_uvel_max              =   2.1248556331590E-04
(PID.TID 0000.0001) %MON advcfl_vvel_max              =   2.0701720371807E-04
(PID.TID 0000.0001) %MON advcfl_wvel_max              =   1.1819115288818E-03
(PID.TID 0000.0001) %MON advcfl_W_hf_max              =   1.1819115288818E-03
(PID.TID 0000.0001) %MON pe_b_mean                    =  -6.8291245392596E-01
(PID.TID 0000.0001) %MON ke_max                       =   2.9401137931736E-06
(PID.TID 0000.0001) %MON ke_mean                      =   5.8747456973804E-09
(PID.TID 0000.0001) %MON ke_vol                       =   4.6182870501663E+12
(PID.TID 0000.0001) // =======================================================
(PID.TID 0000.0001) // End MONITOR dynamic field statistics
(PID.TID 0000.0001) // =======================================================
(PID.TID 0000.0001) // =======================================================
(PID.TID 0000.0001) // Begin OBCS MONITOR field statistics
(PID.TID 0000.0001) // =======================================================
(PID.TID 0000.0001) %MON obc_N_vVel_max               =  -2.5726292730343E-05
(PID.TID 0000.0001) %MON obc_N_vVel_min               =  -2.5726292730344E-05
(PID.TID 0000.0001) %MON obc_N_vVel_mean              =  -2.5726292730343E-05
(PID.TID 0000.0001) %MON obc_N_vVel_sd                =   6.2682596545029E-12
(PID.TID 0000.0001) %MON obc_N_vVel_Int               =  -1.6979353202027E+03
(PID.TID 0000.0001) // =======================================================
(PID.TID 0000.0001) // End OBCS MONITOR field statistics
(PID.TID 0000.0001) // =======================================================
 cg2d: Sum(rhs),rhsMax =   3.01240849549044E+00  4.53054191938678E+02
(PID.TID 0000.0001)      cg2d_init_res =   3.37817173768625E-06
(PID.TID 0000.0001)      cg2d_iters(min,last) =      -1      79
(PID.TID 0000.0001)      cg2d_last_res =   6.82616587534800E-12
(PID.TID 0000.0001) // =======================================================
(PID.TID 0000.0001) // Begin MONITOR dynamic field statistics
(PID.TID 0000.0001) // =======================================================
(PID.TID 0000.0001) %MON time_tsnumber                =                   108
(PID.TID 0000.0001) %MON time_secondsf                =   1.0800000000000E+04
(PID.TID 0000.0001) %MON dynstat_eta_max              =   5.7961482201630E+00
(PID.TID 0000.0001) %MON dynstat_eta_min              =  -1.4177809163751E+01
(PID.TID 0000.0001) %MON dynstat_eta_mean             =  -2.5273783272475E+00
(PID.TID 0000.0001) %MON dynstat_eta_sd               =   4.9420632877334E+00
(PID.TID 0000.0001) %MON dynstat_eta_del2             =   1.9058062946325E-01
(PID.TID 0000.0001) %MON dynstat_uvel_max             =   1.9557822409997E-03
(PID.TID 0000.0001) %MON dynstat_uvel_min             =  -2.1474890091520E-03
(PID.TID 0000.0001) %MON dynstat_uvel_mean            =  -3.0731665583865E-07
(PID.TID 0000.0001) %MON dynstat_uvel_sd              =   6.1513897801589E-05
(PID.TID 0000.0001) %MON dynstat_uvel_del2            =   3.9160353597238E-07
(PID.TID 0000.0001) %MON dynstat_vvel_max             =   2.0950427820488E-03
(PID.TID 0000.0001) %MON dynstat_vvel_min             =  -1.8544335029542E-03
(PID.TID 0000.0001) %MON dynstat_vvel_mean            =  -1.5916246528453E-05
(PID.TID 0000.0001) %MON dynstat_vvel_sd              =   8.7323649622010E-05
(PID.TID 0000.0001) %MON dynstat_vvel_del2            =   4.8539449548100E-07
(PID.TID 0000.0001) %MON dynstat_wvel_max             =   2.0464629548944E-04
(PID.TID 0000.0001) %MON dynstat_wvel_min             =  -2.2538774086264E-04
(PID.TID 0000.0001) %MON dynstat_wvel_mean            =   5.2094543032586E-08
(PID.TID 0000.0001) %MON dynstat_wvel_sd              =   2.9344509624111E-05
(PID.TID 0000.0001) %MON dynstat_wvel_del2            =   1.6580849823317E-07
(PID.TID 0000.0001) %MON dynstat_theta_max            =   1.2000000000000E+00
(PID.TID 0000.0001) %MON dynstat_theta_min            =  -1.0000000000000E+00
(PID.TID 0000.0001) %MON dynstat_theta_mean           =   5.6548287275270E-01
(PID.TID 0000.0001) %MON dynstat_theta_sd             =   8.4906405104209E-01
(PID.TID 0000.0001) %MON dynstat_theta_del2           =   2.5428795619593E-06
(PID.TID 0000.0001) %MON dynstat_salt_max             =   3.4700000000000E+01
(PID.TID 0000.0001) %MON dynstat_salt_min             =   3.4000000000000E+01
(PID.TID 0000.0001) %MON dynstat_salt_mean            =   3.4498106441686E+01
(PID.TID 0000.0001) %MON dynstat_salt_sd              =   2.7015695607776E-01
(PID.TID 0000.0001) %MON dynstat_salt_del2            =   8.0085905831285E-07
(PID.TID 0000.0001) %MON advcfl_uvel_max              =   2.1474890091520E-04
(PID.TID 0000.0001) %MON advcfl_vvel_max              =   2.0950427820488E-04
(PID.TID 0000.0001) %MON advcfl_wvel_max              =   1.1269387043132E-03
(PID.TID 0000.0001) %MON advcfl_W_hf_max              =   1.1269387043132E-03
(PID.TID 0000.0001) %MON pe_b_mean                    =  -6.8290892333273E-01
(PID.TID 0000.0001) %MON ke_max                       =   2.9948248143965E-06
(PID.TID 0000.0001) %MON ke_mean                      =   5.7942881311930E-09
(PID.TID 0000.0001) %MON ke_vol                       =   4.6182872306704E+12
(PID.TID 0000.0001) // =======================================================
(PID.TID 0000.0001) // End MONITOR dynamic field statistics
(PID.TID 0000.0001) // =======================================================
(PID.TID 0000.0001) // =======================================================
(PID.TID 0000.0001) // Begin OBCS MONITOR field statistics
(PID.TID 0000.0001) // =======================================================
(PID.TID 0000.0001) %MON obc_N_vVel_max               =  -1.9902278312374E-05
(PID.TID 0000.0001) %MON obc_N_vVel_min               =  -1.9902278312375E-05
(PID.TID 0000.0001) %MON obc_N_vVel_mean              =  -1.9902278312374E-05
(PID.TID 0000.0001) %MON obc_N_vVel_sd                =   1.9691137908568E-12
(PID.TID 0000.0001) %MON obc_N_vVel_Int               =  -1.3135503686167E+03
(PID.TID 0000.0001) // =======================================================
(PID.TID 0000.0001) // End OBCS MONITOR field statistics
(PID.TID 0000.0001) // =======================================================
 cg2d: Sum(rhs),rhsMax =   3.01238796144484E+00  4.53054185688242E+02
(PID.TID 0000.0001)      cg2d_init_res =   3.43037778966311E-06
(PID.TID 0000.0001)      cg2d_iters(min,last) =      -1      79
(PID.TID 0000.0001)      cg2d_last_res =   6.24431903112960E-12
(PID.TID 0000.0001) // =======================================================
(PID.TID 0000.0001) // Begin MONITOR dynamic field statistics
(PID.TID 0000.0001) // =======================================================
(PID.TID 0000.0001) %MON time_tsnumber                =                   109
(PID.TID 0000.0001) %MON time_secondsf                =   1.0900000000000E+04
(PID.TID 0000.0001) %MON dynstat_eta_max              =   5.7961669482388E+00
(PID.TID 0000.0001) %MON dynstat_eta_min              =  -1.4177792415704E+01
(PID.TID 0000.0001) %MON dynstat_eta_mean             =  -2.5273610645360E+00
(PID.TID 0000.0001) %MON dynstat_eta_sd               =   4.9420631290555E+00
(PID.TID 0000.0001) %MON dynstat_eta_del2             =   1.9058062809899E-01
(PID.TID 0000.0001) %MON dynstat_uvel_max             =   1.9723533523024E-03
(PID.TID 0000.0001) %MON dynstat_uvel_min             =  -2.1699001782278E-03
(PID.TID 0000.0001) %MON dynstat_uvel_mean            =  -3.0607893566344E-07
(PID.TID 0000.0001) %MON dynstat_uvel_sd              =   6.1814617874872E-05
(PID.TID 0000.0001) %MON dynstat_uvel_del2            =   3.9318675306076E-07
(PID.TID 0000.0001) %MON dynstat_vvel_max             =   2.1195442195943E-03
(PID.TID 0000.0001) %MON dynstat_vvel_min             =  -1.8645297540640E-03
(PID.TID 0000.0001) %MON dynstat_vvel_mean            =  -9.3783143802287E-06
(PID.TID 0000.0001) %MON dynstat_vvel_sd              =   8.7604944737842E-05
(PID.TID 0000.0001) %MON dynstat_vvel_del2            =   4.8757927981556E-07
(PID.TID 0000.0001) %MON dynstat_wvel_max             =   2.0965139982342E-04
(PID.TID 0000.0001) %MON dynstat_wvel_min             =  -2.0938518791475E-04
(PID.TID 0000.0001) %MON dynstat_wvel_mean            =   5.2489693853551E-08
(PID.TID 0000.0001) %MON dynstat_wvel_sd              =   2.9488401599948E-05
(PID.TID 0000.0001) %MON dynstat_wvel_del2            =   1.6764351354257E-07
(PID.TID 0000.0001) %MON dynstat_theta_max            =   1.2000000000000E+00
(PID.TID 0000.0001) %MON dynstat_theta_min            =  -1.0000000000000E+00
(PID.TID 0000.0001) %MON dynstat_theta_mean           =   5.6548266316884E-01
(PID.TID 0000.0001) %MON dynstat_theta_sd             =   8.4906400863626E-01
(PID.TID 0000.0001) %MON dynstat_theta_del2           =   2.5270260517877E-06
(PID.TID 0000.0001) %MON dynstat_salt_max             =   3.4700000000000E+01
(PID.TID 0000.0001) %MON dynstat_salt_min             =   3.4000000000000E+01
(PID.TID 0000.0001) %MON dynstat_salt_mean            =   3.4498106359185E+01
(PID.TID 0000.0001) %MON dynstat_salt_sd              =   2.7015694436408E-01
(PID.TID 0000.0001) %MON dynstat_salt_del2            =   7.9568272833290E-07
(PID.TID 0000.0001) %MON advcfl_uvel_max              =   2.1699001782278E-04
(PID.TID 0000.0001) %MON advcfl_vvel_max              =   2.1195442195943E-04
(PID.TID 0000.0001) %MON advcfl_wvel_max              =   1.0482569991171E-03
(PID.TID 0000.0001) %MON advcfl_W_hf_max              =   1.0482569991171E-03
(PID.TID 0000.0001) %MON pe_b_mean                    =  -6.8290677600036E-01
(PID.TID 0000.0001) %MON ke_max                       =   3.0492571992115E-06
(PID.TID 0000.0001) %MON ke_mean                      =   5.7551245413837E-09
(PID.TID 0000.0001) %MON ke_vol                       =   4.6182873727362E+12
(PID.TID 0000.0001) // =======================================================
(PID.TID 0000.0001) // End MONITOR dynamic field statistics
(PID.TID 0000.0001) // =======================================================
(PID.TID 0000.0001) // =======================================================
(PID.TID 0000.0001) // Begin OBCS MONITOR field statistics
(PID.TID 0000.0001) // =======================================================
(PID.TID 0000.0001) %MON obc_N_vVel_max               =  -1.3913593657266E-05
(PID.TID 0000.0001) %MON obc_N_vVel_min               =  -1.3913593657266E-05
(PID.TID 0000.0001) %MON obc_N_vVel_mean              =  -1.3913593657266E-05
(PID.TID 0000.0001) %MON obc_N_vVel_sd                =  -1.2743751312145E-23
(PID.TID 0000.0001) %MON obc_N_vVel_Int               =  -9.1829718137958E+02
(PID.TID 0000.0001) // =======================================================
(PID.TID 0000.0001) // End OBCS MONITOR field statistics
(PID.TID 0000.0001) // =======================================================
 cg2d: Sum(rhs),rhsMax =   3.01237534642217E+00  4.53054176519424E+02
(PID.TID 0000.0001)      cg2d_init_res =   3.47103242331539E-06
(PID.TID 0000.0001)      cg2d_iters(min,last) =      -1      75
(PID.TID 0000.0001)      cg2d_last_res =   9.87532277564833E-12
(PID.TID 0000.0001) // =======================================================
(PID.TID 0000.0001) // Begin MONITOR dynamic field statistics
(PID.TID 0000.0001) // =======================================================
(PID.TID 0000.0001) %MON time_tsnumber                =                   110
(PID.TID 0000.0001) %MON time_secondsf                =   1.1000000000000E+04
(PID.TID 0000.0001) %MON dynstat_eta_max              =   5.7961749997771E+00
(PID.TID 0000.0001) %MON dynstat_eta_min              =  -1.4177789278888E+01
(PID.TID 0000.0001) %MON dynstat_eta_mean             =  -2.5273504295198E+00
(PID.TID 0000.0001) %MON dynstat_eta_sd               =   4.9420649915944E+00
(PID.TID 0000.0001) %MON dynstat_eta_del2             =   1.9058062666590E-01
(PID.TID 0000.0001) %MON dynstat_uvel_max             =   1.9886747369338E-03
(PID.TID 0000.0001) %MON dynstat_uvel_min             =  -2.1920862032516E-03
(PID.TID 0000.0001) %MON dynstat_uvel_mean            =  -2.9585343490650E-07
(PID.TID 0000.0001) %MON dynstat_uvel_sd              =   6.2110960493410E-05
(PID.TID 0000.0001) %MON dynstat_uvel_del2            =   3.9471366424222E-07
(PID.TID 0000.0001) %MON dynstat_vvel_max             =   2.1435367357387E-03
(PID.TID 0000.0001) %MON dynstat_vvel_min             =  -1.8745715163835E-03
(PID.TID 0000.0001) %MON dynstat_vvel_mean            =  -3.0368900650199E-06
(PID.TID 0000.0001) %MON dynstat_vvel_sd              =   8.7852763456644E-05
(PID.TID 0000.0001) %MON dynstat_vvel_del2            =   4.8893039909124E-07
(PID.TID 0000.0001) %MON dynstat_wvel_max             =   2.1053070518500E-04
(PID.TID 0000.0001) %MON dynstat_wvel_min             =  -1.8884037632805E-04
(PID.TID 0000.0001) %MON dynstat_wvel_mean            =   5.1314325824700E-08
(PID.TID 0000.0001) %MON dynstat_wvel_sd              =   2.9560511904599E-05
(PID.TID 0000.0001) %MON dynstat_wvel_del2            =   1.6849678507885E-07
(PID.TID 0000.0001) %MON dynstat_theta_max            =   1.2000000000000E+00
(PID.TID 0000.0001) %MON dynstat_theta_min            =  -1.0000000000000E+00
(PID.TID 0000.0001) %MON dynstat_theta_mean           =   5.6548245608568E-01
(PID.TID 0000.0001) %MON dynstat_theta_sd             =   8.4906396499085E-01
(PID.TID 0000.0001) %MON dynstat_theta_del2           =   2.5117170840344E-06
(PID.TID 0000.0001) %MON dynstat_salt_max             =   3.4700000000000E+01
(PID.TID 0000.0001) %MON dynstat_salt_min             =   3.4000000000000E+01
(PID.TID 0000.0001) %MON dynstat_salt_mean            =   3.4498106277481E+01
(PID.TID 0000.0001) %MON dynstat_salt_sd              =   2.7015693226134E-01
(PID.TID 0000.0001) %MON dynstat_salt_del2            =   7.9068390233960E-07
(PID.TID 0000.0001) %MON advcfl_uvel_max              =   2.1920862032516E-04
(PID.TID 0000.0001) %MON advcfl_vvel_max              =   2.1435367357387E-04
(PID.TID 0000.0001) %MON advcfl_wvel_max              =   1.0526535259250E-03
(PID.TID 0000.0001) %MON advcfl_W_hf_max              =   1.0526535259250E-03
(PID.TID 0000.0001) %MON pe_b_mean                    =  -6.8290596106195E-01
(PID.TID 0000.0001) %MON ke_max                       =   3.1033241433460E-06
(PID.TID 0000.0001) %MON ke_mean                      =   5.7559808809838E-09
(PID.TID 0000.0001) %MON ke_vol                       =   4.6182874752767E+12
(PID.TID 0000.0001) // =======================================================
(PID.TID 0000.0001) // End MONITOR dynamic field statistics
(PID.TID 0000.0001) // =======================================================
(PID.TID 0000.0001) // =======================================================
(PID.TID 0000.0001) // Begin OBCS MONITOR field statistics
(PID.TID 0000.0001) // =======================================================
(PID.TID 0000.0001) %MON obc_N_vVel_max               =  -7.9486525059662E-06
(PID.TID 0000.0001) %MON obc_N_vVel_min               =  -7.9486525059663E-06
(PID.TID 0000.0001) %MON obc_N_vVel_mean              =  -7.9486525059663E-06
(PID.TID 0000.0001) %MON obc_N_vVel_sd                =  -6.5915955062819E-25
(PID.TID 0000.0001) %MON obc_N_vVel_Int               =  -5.2461106539378E+02
(PID.TID 0000.0001) // =======================================================
(PID.TID 0000.0001) // End OBCS MONITOR field statistics
(PID.TID 0000.0001) // =======================================================
 cg2d: Sum(rhs),rhsMax =   3.01237038842935E+00  4.53054164412549E+02
(PID.TID 0000.0001)      cg2d_init_res =   3.49478942282965E-06
(PID.TID 0000.0001)      cg2d_iters(min,last) =      -1      78
(PID.TID 0000.0001)      cg2d_last_res =   9.00317880804459E-12
(PID.TID 0000.0001) // =======================================================
(PID.TID 0000.0001) // Begin MONITOR dynamic field statistics
(PID.TID 0000.0001) // =======================================================
(PID.TID 0000.0001) %MON time_tsnumber                =                   111
(PID.TID 0000.0001) %MON time_secondsf                =   1.1100000000000E+04
(PID.TID 0000.0001) %MON dynstat_eta_max              =   5.7961729691737E+00
(PID.TID 0000.0001) %MON dynstat_eta_min              =  -1.4177798744929E+01
(PID.TID 0000.0001) %MON dynstat_eta_mean             =  -2.5273462022796E+00
(PID.TID 0000.0001) %MON dynstat_eta_sd               =   4.9420686557599E+00
(PID.TID 0000.0001) %MON dynstat_eta_del2             =   1.9058062518079E-01
(PID.TID 0000.0001) %MON dynstat_uvel_max             =   2.0047361322515E-03
(PID.TID 0000.0001) %MON dynstat_uvel_min             =  -2.2140449831953E-03
(PID.TID 0000.0001) %MON dynstat_uvel_mean            =  -2.7771863931483E-07
(PID.TID 0000.0001) %MON dynstat_uvel_sd              =   6.2402881233408E-05
(PID.TID 0000.0001) %MON dynstat_uvel_del2            =   3.9618472534466E-07
(PID.TID 0000.0001) %MON dynstat_vvel_max             =   2.1668978790181E-03
(PID.TID 0000.0001) %MON dynstat_vvel_min             =  -1.8846776120718E-03
(PID.TID 0000.0001) %MON dynstat_vvel_mean            =   2.9350958748153E-06
(PID.TID 0000.0001) %MON dynstat_vvel_sd              =   8.8053106201091E-05
(PID.TID 0000.0001) %MON dynstat_vvel_del2            =   4.8942993579998E-07
(PID.TID 0000.0001) %MON dynstat_wvel_max             =   2.1006097779848E-04
(PID.TID 0000.0001) %MON dynstat_wvel_min             =  -1.6516445370438E-04
(PID.TID 0000.0001) %MON dynstat_wvel_mean            =   4.8715454357564E-08
(PID.TID 0000.0001) %MON dynstat_wvel_sd              =   2.9547265440524E-05
(PID.TID 0000.0001) %MON dynstat_wvel_del2            =   1.6828151041867E-07
(PID.TID 0000.0001) %MON dynstat_theta_max            =   1.2000000000000E+00
(PID.TID 0000.0001) %MON dynstat_theta_min            =  -1.0000000000000E+00
(PID.TID 0000.0001) %MON dynstat_theta_mean           =   5.6548225147834E-01
(PID.TID 0000.0001) %MON dynstat_theta_sd             =   8.4906392022950E-01
(PID.TID 0000.0001) %MON dynstat_theta_del2           =   2.4969940155475E-06
(PID.TID 0000.0001) %MON dynstat_salt_max             =   3.4700000000000E+01
(PID.TID 0000.0001) %MON dynstat_salt_min             =   3.4000000000000E+01
(PID.TID 0000.0001) %MON dynstat_salt_mean            =   3.4498106196564E+01
(PID.TID 0000.0001) %MON dynstat_salt_sd              =   2.7015691980859E-01
(PID.TID 0000.0001) %MON dynstat_salt_del2            =   7.8587603731509E-07
(PID.TID 0000.0001) %MON advcfl_uvel_max              =   2.2140449831953E-04
(PID.TID 0000.0001) %MON advcfl_vvel_max              =   2.1668978790181E-04
(PID.TID 0000.0001) %MON advcfl_wvel_max              =   1.0503048889924E-03
(PID.TID 0000.0001) %MON advcfl_W_hf_max              =   1.0503048889924E-03
(PID.TID 0000.0001) %MON pe_b_mean                    =  -6.8290639200000E-01
(PID.TID 0000.0001) %MON ke_max                       =   3.1569442604369E-06
(PID.TID 0000.0001) %MON ke_mean                      =   5.7913331569286E-09
(PID.TID 0000.0001) %MON ke_vol                       =   4.6182875384487E+12
(PID.TID 0000.0001) // =======================================================
(PID.TID 0000.0001) // End MONITOR dynamic field statistics
(PID.TID 0000.0001) // =======================================================
(PID.TID 0000.0001) // =======================================================
(PID.TID 0000.0001) // Begin OBCS MONITOR field statistics
(PID.TID 0000.0001) // =======================================================
(PID.TID 0000.0001) %MON obc_N_vVel_max               =  -2.1816386587999E-06
(PID.TID 0000.0001) %MON obc_N_vVel_min               =  -2.1816386587999E-06
(PID.TID 0000.0001) %MON obc_N_vVel_mean              =  -2.1816386587999E-06
(PID.TID 0000.0001) %MON obc_N_vVel_sd                =  -1.4701842918423E-25
(PID.TID 0000.0001) %MON obc_N_vVel_Int               =  -1.4398815148080E+02
(PID.TID 0000.0001) // =======================================================
(PID.TID 0000.0001) // End OBCS MONITOR field statistics
(PID.TID 0000.0001) // =======================================================
 cg2d: Sum(rhs),rhsMax =   3.01237261829161E+00  4.53054149467278E+02
(PID.TID 0000.0001)      cg2d_init_res =   3.49865876284226E-06
(PID.TID 0000.0001)      cg2d_iters(min,last) =      -1      79
(PID.TID 0000.0001)      cg2d_last_res =   6.51548046244905E-12
(PID.TID 0000.0001) // =======================================================
(PID.TID 0000.0001) // Begin MONITOR dynamic field statistics
(PID.TID 0000.0001) // =======================================================
(PID.TID 0000.0001) %MON time_tsnumber                =                   112
(PID.TID 0000.0001) %MON time_secondsf                =   1.1200000000000E+04
(PID.TID 0000.0001) %MON dynstat_eta_max              =   5.7961617059441E+00
(PID.TID 0000.0001) %MON dynstat_eta_min              =  -1.4177819499577E+01
(PID.TID 0000.0001) %MON dynstat_eta_mean             =  -2.5273479897382E+00
(PID.TID 0000.0001) %MON dynstat_eta_sd               =   4.9420738645516E+00
(PID.TID 0000.0001) %MON dynstat_eta_del2             =   1.9058062365115E-01
(PID.TID 0000.0001) %MON dynstat_uvel_max             =   2.0205281087122E-03
(PID.TID 0000.0001) %MON dynstat_uvel_min             =  -2.2357754010789E-03
(PID.TID 0000.0001) %MON dynstat_uvel_mean            =  -2.5287648025665E-07
(PID.TID 0000.0001) %MON dynstat_uvel_sd              =   6.2690296620290E-05
(PID.TID 0000.0001) %MON dynstat_uvel_del2            =   3.9760040482870E-07
(PID.TID 0000.0001) %MON dynstat_vvel_max             =   2.1895247902499E-03
(PID.TID 0000.0001) %MON dynstat_vvel_min             =  -1.8949479601122E-03
(PID.TID 0000.0001) %MON dynstat_vvel_mean            =   8.3880104766719E-06
(PID.TID 0000.0001) %MON dynstat_vvel_sd              =   8.8199056096041E-05
(PID.TID 0000.0001) %MON dynstat_vvel_del2            =   4.8915822247658E-07
(PID.TID 0000.0001) %MON dynstat_wvel_max             =   2.0687642183171E-04
(PID.TID 0000.0001) %MON dynstat_wvel_min             =  -1.6594263891335E-04
(PID.TID 0000.0001) %MON dynstat_wvel_mean            =   4.4871411477373E-08
(PID.TID 0000.0001) %MON dynstat_wvel_sd              =   2.9446003412149E-05
(PID.TID 0000.0001) %MON dynstat_wvel_del2            =   1.6702991133287E-07
(PID.TID 0000.0001) %MON dynstat_theta_max            =   1.2000000000000E+00
(PID.TID 0000.0001) %MON dynstat_theta_min            =  -1.0000000000000E+00
(PID.TID 0000.0001) %MON dynstat_theta_mean           =   5.6548204925054E-01
(PID.TID 0000.0001) %MON dynstat_theta_sd             =   8.4906387443558E-01
(PID.TID 0000.0001) %MON dynstat_theta_del2           =   2.4828372164752E-06
(PID.TID 0000.0001) %MON dynstat_salt_max             =   3.4700000000000E+01
(PID.TID 0000.0001) %MON dynstat_salt_min             =   3.4000000000000E+01
(PID.TID 0000.0001) %MON dynstat_salt_mean            =   3.4498106116404E+01
(PID.TID 0000.0001) %MON dynstat_salt_sd              =   2.7015690703231E-01
(PID.TID 0000.0001) %MON dynstat_salt_del2            =   7.8125298002369E-07
(PID.TID 0000.0001) %MON advcfl_uvel_max              =   2.2357754010789E-04
(PID.TID 0000.0001) %MON advcfl_vvel_max              =   2.1895247902499E-04
(PID.TID 0000.0001) %MON advcfl_wvel_max              =   1.0343821091586E-03
(PID.TID 0000.0001) %MON advcfl_W_hf_max              =   1.0343821091586E-03
(PID.TID 0000.0001) %MON pe_b_mean                    =  -6.8290795175424E-01
(PID.TID 0000.0001) %MON ke_max                       =   3.2100436028727E-06
(PID.TID 0000.0001) %MON ke_mean                      =   5.8526778120946E-09
(PID.TID 0000.0001) %MON ke_vol                       =   4.6182875635585E+12
(PID.TID 0000.0001) // =======================================================
(PID.TID 0000.0001) // End MONITOR dynamic field statistics
(PID.TID 0000.0001) // =======================================================
(PID.TID 0000.0001) // =======================================================
(PID.TID 0000.0001) // Begin OBCS MONITOR field statistics
(PID.TID 0000.0001) // =======================================================
(PID.TID 0000.0001) %MON obc_N_vVel_max               =   3.2316072769062E-06
(PID.TID 0000.0001) %MON obc_N_vVel_min               =   3.2316072769061E-06
(PID.TID 0000.0001) %MON obc_N_vVel_mean              =   3.2316072769062E-06
(PID.TID 0000.0001) %MON obc_N_vVel_sd                =  -3.6350710512584E-25
(PID.TID 0000.0001) %MON obc_N_vVel_Int               =   2.1328608027581E+02
(PID.TID 0000.0001) // =======================================================
(PID.TID 0000.0001) // End OBCS MONITOR field statistics
(PID.TID 0000.0001) // =======================================================
 cg2d: Sum(rhs),rhsMax =   3.01238138829441E+00  4.53054131897883E+02
(PID.TID 0000.0001)      cg2d_init_res =   3.48203626905591E-06
(PID.TID 0000.0001)      cg2d_iters(min,last) =      -1      79
(PID.TID 0000.0001)      cg2d_last_res =   6.71793596178035E-12
(PID.TID 0000.0001) // =======================================================
(PID.TID 0000.0001) // Begin MONITOR dynamic field statistics
(PID.TID 0000.0001) // =======================================================
(PID.TID 0000.0001) %MON time_tsnumber                =                   113
(PID.TID 0000.0001) %MON time_secondsf                =   1.1300000000000E+04
(PID.TID 0000.0001) %MON dynstat_eta_max              =   5.7961422746949E+00
(PID.TID 0000.0001) %MON dynstat_eta_min              =  -1.4177849981215E+01
(PID.TID 0000.0001) %MON dynstat_eta_mean             =  -2.5273552496649E+00
(PID.TID 0000.0001) %MON dynstat_eta_sd               =   4.9420803339226E+00
(PID.TID 0000.0001) %MON dynstat_eta_del2             =   1.9058062209120E-01
(PID.TID 0000.0001) %MON dynstat_uvel_max             =   2.0360424148063E-03
(PID.TID 0000.0001) %MON dynstat_uvel_min             =  -2.2572771318161E-03
(PID.TID 0000.0001) %MON dynstat_uvel_mean            =  -2.2260135005769E-07
(PID.TID 0000.0001) %MON dynstat_uvel_sd              =   6.2973096466072E-05
(PID.TID 0000.0001) %MON dynstat_uvel_del2            =   3.9896121495525E-07
(PID.TID 0000.0001) %MON dynstat_vvel_max             =   2.2113359059368E-03
(PID.TID 0000.0001) %MON dynstat_vvel_min             =  -1.9054622427745E-03
(PID.TID 0000.0001) %MON dynstat_vvel_mean            =   1.3198275196702E-05
(PID.TID 0000.0001) %MON dynstat_vvel_sd              =   8.8291302652418E-05
(PID.TID 0000.0001) %MON dynstat_vvel_del2            =   4.8827990275237E-07
(PID.TID 0000.0001) %MON dynstat_wvel_max             =   1.9940497889839E-04
(PID.TID 0000.0001) %MON dynstat_wvel_min             =  -1.6436072422588E-04
(PID.TID 0000.0001) %MON dynstat_wvel_mean            =   3.9984682347896E-08
(PID.TID 0000.0001) %MON dynstat_wvel_sd              =   2.9264656247206E-05
(PID.TID 0000.0001) %MON dynstat_wvel_del2            =   1.6488384627139E-07
(PID.TID 0000.0001) %MON dynstat_theta_max            =   1.2000000000000E+00
(PID.TID 0000.0001) %MON dynstat_theta_min            =  -1.0000000000000E+00
(PID.TID 0000.0001) %MON dynstat_theta_mean           =   5.6548184924229E-01
(PID.TID 0000.0001) %MON dynstat_theta_sd             =   8.4906382775722E-01
(PID.TID 0000.0001) %MON dynstat_theta_del2           =   2.4691712953677E-06
(PID.TID 0000.0001) %MON dynstat_salt_max             =   3.4700000000000E+01
(PID.TID 0000.0001) %MON dynstat_salt_min             =   3.4000000000000E+01
(PID.TID 0000.0001) %MON dynstat_salt_mean            =   3.4498106036950E+01
(PID.TID 0000.0001) %MON dynstat_salt_sd              =   2.7015689397896E-01
(PID.TID 0000.0001) %MON dynstat_salt_del2            =   7.7679057628973E-07
(PID.TID 0000.0001) %MON advcfl_uvel_max              =   2.2572771318161E-04
(PID.TID 0000.0001) %MON advcfl_vvel_max              =   2.2113359059368E-04
(PID.TID 0000.0001) %MON advcfl_wvel_max              =   9.9702489449197E-04
(PID.TID 0000.0001) %MON advcfl_W_hf_max              =   9.9702489449197E-04
(PID.TID 0000.0001) %MON pe_b_mean                    =  -6.8291049836957E-01
(PID.TID 0000.0001) %MON ke_max                       =   3.2625574790961E-06
(PID.TID 0000.0001) %MON ke_mean                      =   5.9299613181685E-09
(PID.TID 0000.0001) %MON ke_vol                       =   4.6182875529410E+12
(PID.TID 0000.0001) // =======================================================
(PID.TID 0000.0001) // End MONITOR dynamic field statistics
(PID.TID 0000.0001) // =======================================================
(PID.TID 0000.0001) // =======================================================
(PID.TID 0000.0001) // Begin OBCS MONITOR field statistics
(PID.TID 0000.0001) // =======================================================
(PID.TID 0000.0001) %MON obc_N_vVel_max               =   8.1568501747026E-06
(PID.TID 0000.0001) %MON obc_N_vVel_min               =   8.1568501747025E-06
(PID.TID 0000.0001) %MON obc_N_vVel_mean              =   8.1568501747026E-06
(PID.TID 0000.0001) %MON obc_N_vVel_sd                =  -4.3943970041880E-25
(PID.TID 0000.0001) %MON obc_N_vVel_Int               =   5.3835211153037E+02
(PID.TID 0000.0001) // =======================================================
(PID.TID 0000.0001) // End OBCS MONITOR field statistics
(PID.TID 0000.0001) // =======================================================
 cg2d: Sum(rhs),rhsMax =   3.01239590415033E+00  4.53054112014039E+02
(PID.TID 0000.0001)      cg2d_init_res =   3.44685680461713E-06
(PID.TID 0000.0001)      cg2d_iters(min,last) =      -1      79
(PID.TID 0000.0001)      cg2d_last_res =   6.93288521428223E-12
(PID.TID 0000.0001) // =======================================================
(PID.TID 0000.0001) // Begin MONITOR dynamic field statistics
(PID.TID 0000.0001) // =======================================================
(PID.TID 0000.0001) %MON time_tsnumber                =                   114
(PID.TID 0000.0001) %MON time_secondsf                =   1.1400000000000E+04
(PID.TID 0000.0001) %MON dynstat_eta_max              =   5.7961159027649E+00
(PID.TID 0000.0001) %MON dynstat_eta_min              =  -1.4177888438376E+01
(PID.TID 0000.0001) %MON dynstat_eta_mean             =  -2.5273673173881E+00
(PID.TID 0000.0001) %MON dynstat_eta_sd               =   4.9420877630289E+00
(PID.TID 0000.0001) %MON dynstat_eta_del2             =   1.9058062051561E-01
(PID.TID 0000.0001) %MON dynstat_uvel_max             =   2.0512721105153E-03
(PID.TID 0000.0001) %MON dynstat_uvel_min             =  -2.2785507205778E-03
(PID.TID 0000.0001) %MON dynstat_uvel_mean            =  -1.8819418811221E-07
(PID.TID 0000.0001) %MON dynstat_uvel_sd              =   6.3251155965790E-05
(PID.TID 0000.0001) %MON dynstat_uvel_del2            =   4.0026773860544E-07
(PID.TID 0000.0001) %MON dynstat_vvel_max             =   2.2322718273688E-03
(PID.TID 0000.0001) %MON dynstat_vvel_min             =  -1.9162789712155E-03
(PID.TID 0000.0001) %MON dynstat_vvel_mean            =   1.7270144116566E-05
(PID.TID 0000.0001) %MON dynstat_vvel_sd              =   8.8337645637243E-05
(PID.TID 0000.0001) %MON dynstat_vvel_del2            =   4.8702130266473E-07
(PID.TID 0000.0001) %MON dynstat_wvel_max             =   1.8777987012762E-04
(PID.TID 0000.0001) %MON dynstat_wvel_min             =  -1.7801064654114E-04
(PID.TID 0000.0001) %MON dynstat_wvel_mean            =   3.4273829266618E-08
(PID.TID 0000.0001) %MON dynstat_wvel_sd              =   2.9020408106398E-05
(PID.TID 0000.0001) %MON dynstat_wvel_del2            =   1.6207891532263E-07
(PID.TID 0000.0001) %MON dynstat_theta_max            =   1.2000000000000E+00
(PID.TID 0000.0001) %MON dynstat_theta_min            =  -1.0000000000000E+00
(PID.TID 0000.0001) %MON dynstat_theta_mean           =   5.6548165123841E-01
(PID.TID 0000.0001) %MON dynstat_theta_sd             =   8.4906378038661E-01
(PID.TID 0000.0001) %MON dynstat_theta_del2           =   2.4558772250651E-06
(PID.TID 0000.0001) %MON dynstat_salt_max             =   3.4700000000000E+01
(PID.TID 0000.0001) %MON dynstat_salt_min             =   3.4000000000000E+01
(PID.TID 0000.0001) %MON dynstat_salt_mean            =   3.4498105958134E+01
(PID.TID 0000.0001) %MON dynstat_salt_sd              =   2.7015688070949E-01
(PID.TID 0000.0001) %MON dynstat_salt_del2            =   7.7245059767656E-07
(PID.TID 0000.0001) %MON advcfl_uvel_max              =   2.2785507205778E-04
(PID.TID 0000.0001) %MON advcfl_vvel_max              =   2.2322718273688E-04
(PID.TID 0000.0001) %MON advcfl_wvel_max              =   9.3889935063809E-04
(PID.TID 0000.0001) %MON advcfl_W_hf_max              =   9.3889935063809E-04
(PID.TID 0000.0001) %MON pe_b_mean                    =  -6.8291387096783E-01
(PID.TID 0000.0001) %MON ke_max                       =   3.3144317164084E-06
(PID.TID 0000.0001) %MON ke_mean                      =   6.0129765919400E-09
(PID.TID 0000.0001) %MON ke_vol                       =   4.6182875098170E+12
(PID.TID 0000.0001) // =======================================================
(PID.TID 0000.0001) // End MONITOR dynamic field statistics
(PID.TID 0000.0001) // =======================================================
(PID.TID 0000.0001) // =======================================================
(PID.TID 0000.0001) // Begin OBCS MONITOR field statistics
(PID.TID 0000.0001) // =======================================================
(PID.TID 0000.0001) %MON obc_N_vVel_max               =   1.2483902138237E-05
(PID.TID 0000.0001) %MON obc_N_vVel_min               =   1.2483902138237E-05
(PID.TID 0000.0001) %MON obc_N_vVel_mean              =   1.2483902138237E-05
(PID.TID 0000.0001) %MON obc_N_vVel_sd                =   1.2031483998110E-12
(PID.TID 0000.0001) %MON obc_N_vVel_Int               =   8.2393754112365E+02
(PID.TID 0000.0001) // =======================================================
(PID.TID 0000.0001) // End OBCS MONITOR field statistics
(PID.TID 0000.0001) // =======================================================
 cg2d: Sum(rhs),rhsMax =   3.01241525894877E+00  4.53054090205354E+02
(PID.TID 0000.0001)      cg2d_init_res =   3.39702897239427E-06
(PID.TID 0000.0001)      cg2d_iters(min,last) =      -1      78
(PID.TID 0000.0001)      cg2d_last_res =   9.69480890868503E-12
(PID.TID 0000.0001) // =======================================================
(PID.TID 0000.0001) // Begin MONITOR dynamic field statistics
(PID.TID 0000.0001) // =======================================================
(PID.TID 0000.0001) %MON time_tsnumber                =                   115
(PID.TID 0000.0001) %MON time_secondsf                =   1.1500000000000E+04
(PID.TID 0000.0001) %MON dynstat_eta_max              =   5.7960839351050E+00
(PID.TID 0000.0001) %MON dynstat_eta_min              =  -1.4177933033540E+01
(PID.TID 0000.0001) %MON dynstat_eta_mean             =  -2.5273834341921E+00
(PID.TID 0000.0001) %MON dynstat_eta_sd               =   4.9420958443698E+00
(PID.TID 0000.0001) %MON dynstat_eta_del2             =   1.9058061894078E-01
(PID.TID 0000.0001) %MON dynstat_uvel_max             =   2.0662117293497E-03
(PID.TID 0000.0001) %MON dynstat_uvel_min             =  -2.2995974857083E-03
(PID.TID 0000.0001) %MON dynstat_uvel_mean            =  -1.5094523570100E-07
(PID.TID 0000.0001) %MON dynstat_uvel_sd              =   6.3524346354423E-05
(PID.TID 0000.0001) %MON dynstat_uvel_del2            =   4.0152064795602E-07
(PID.TID 0000.0001) %MON dynstat_vvel_max             =   2.2522955463149E-03
(PID.TID 0000.0001) %MON dynstat_vvel_min             =  -1.9274352006153E-03
(PID.TID 0000.0001) %MON dynstat_vvel_mean            =   2.0536536972967E-05
(PID.TID 0000.0001) %MON dynstat_vvel_sd              =   8.8351599003718E-05
(PID.TID 0000.0001) %MON dynstat_vvel_del2            =   4.8564126382767E-07
(PID.TID 0000.0001) %MON dynstat_wvel_max             =   1.7218713510141E-04
(PID.TID 0000.0001) %MON dynstat_wvel_min             =  -1.9389001254464E-04
(PID.TID 0000.0001) %MON dynstat_wvel_mean            =   2.7966357348786E-08
(PID.TID 0000.0001) %MON dynstat_wvel_sd              =   2.8737462444068E-05
(PID.TID 0000.0001) %MON dynstat_wvel_del2            =   1.5892125151943E-07
(PID.TID 0000.0001) %MON dynstat_theta_max            =   1.2000000000000E+00
(PID.TID 0000.0001) %MON dynstat_theta_min            =  -1.0000000000000E+00
(PID.TID 0000.0001) %MON dynstat_theta_mean           =   5.6548145498141E-01
(PID.TID 0000.0001) %MON dynstat_theta_sd             =   8.4906373252473E-01
(PID.TID 0000.0001) %MON dynstat_theta_del2           =   2.4428091651159E-06
(PID.TID 0000.0001) %MON dynstat_salt_max             =   3.4700000000000E+01
(PID.TID 0000.0001) %MON dynstat_salt_min             =   3.4000000000000E+01
(PID.TID 0000.0001) %MON dynstat_salt_mean            =   3.4498105879873E+01
(PID.TID 0000.0001) %MON dynstat_salt_sd              =   2.7015686728743E-01
(PID.TID 0000.0001) %MON dynstat_salt_del2            =   7.6818613562723E-07
(PID.TID 0000.0001) %MON advcfl_uvel_max              =   2.2995974857083E-04
(PID.TID 0000.0001) %MON advcfl_vvel_max              =   2.2522955463149E-04
(PID.TID 0000.0001) %MON advcfl_wvel_max              =   9.6945006272319E-04
(PID.TID 0000.0001) %MON advcfl_W_hf_max              =   9.6945006272319E-04
(PID.TID 0000.0001) %MON pe_b_mean                    =  -6.8291789586571E-01
(PID.TID 0000.0001) %MON ke_max                       =   3.3656235443448E-06
(PID.TID 0000.0001) %MON ke_mean                      =   6.0925656178438E-09
(PID.TID 0000.0001) %MON ke_vol                       =   4.6182874381347E+12
(PID.TID 0000.0001) // =======================================================
(PID.TID 0000.0001) // End MONITOR dynamic field statistics
(PID.TID 0000.0001) // =======================================================
(PID.TID 0000.0001) // =======================================================
(PID.TID 0000.0001) // Begin OBCS MONITOR field statistics
(PID.TID 0000.0001) // =======================================================
(PID.TID 0000.0001) %MON obc_N_vVel_max               =   1.6128111764315E-05
(PID.TID 0000.0001) %MON obc_N_vVel_min               =   1.6128111764314E-05
(PID.TID 0000.0001) %MON obc_N_vVel_mean              =   1.6128111764314E-05
(PID.TID 0000.0001) %MON obc_N_vVel_sd                =  -1.5509636485369E-25
(PID.TID 0000.0001) %MON obc_N_vVel_Int               =   1.0644553764447E+03
(PID.TID 0000.0001) // =======================================================
(PID.TID 0000.0001) // End OBCS MONITOR field statistics
(PID.TID 0000.0001) // =======================================================
 cg2d: Sum(rhs),rhsMax =   3.01243846801660E+00  4.53054066921708E+02
(PID.TID 0000.0001)      cg2d_init_res =   3.33810893531207E-06
(PID.TID 0000.0001)      cg2d_iters(min,last) =      -1      78
(PID.TID 0000.0001)      cg2d_last_res =   8.16867569890235E-12
(PID.TID 0000.0001) // =======================================================
(PID.TID 0000.0001) // Begin MONITOR dynamic field statistics
(PID.TID 0000.0001) // =======================================================
(PID.TID 0000.0001) %MON time_tsnumber                =                   116
(PID.TID 0000.0001) %MON time_secondsf                =   1.1600000000000E+04
(PID.TID 0000.0001) %MON dynstat_eta_max              =   5.7960477849045E+00
(PID.TID 0000.0001) %MON dynstat_eta_min              =  -1.4177981878552E+01
(PID.TID 0000.0001) %MON dynstat_eta_mean             =  -2.5274027764561E+00
(PID.TID 0000.0001) %MON dynstat_eta_sd               =   4.9421042732984E+00
(PID.TID 0000.0001) %MON dynstat_eta_del2             =   1.9058061738117E-01
(PID.TID 0000.0001) %MON dynstat_uvel_max             =   2.0808573396547E-03
(PID.TID 0000.0001) %MON dynstat_uvel_min             =  -2.3204194584314E-03
(PID.TID 0000.0001) %MON dynstat_uvel_mean            =  -1.1210627474361E-07
(PID.TID 0000.0001) %MON dynstat_uvel_sd              =   6.3792544213123E-05
(PID.TID 0000.0001) %MON dynstat_uvel_del2            =   4.0272071736200E-07
(PID.TID 0000.0001) %MON dynstat_vvel_max             =   2.2713919375388E-03
(PID.TID 0000.0001) %MON dynstat_vvel_min             =  -1.9389469911264E-03
(PID.TID 0000.0001) %MON dynstat_vvel_mean            =   2.2958969486375E-05
(PID.TID 0000.0001) %MON dynstat_vvel_sd              =   8.8350318678440E-05
(PID.TID 0000.0001) %MON dynstat_vvel_del2            =   4.8439843892334E-07
(PID.TID 0000.0001) %MON dynstat_wvel_max             =   1.7197506341072E-04
(PID.TID 0000.0001) %MON dynstat_wvel_min             =  -2.0524643587278E-04
(PID.TID 0000.0001) %MON dynstat_wvel_mean            =   2.1291099597335E-08
(PID.TID 0000.0001) %MON dynstat_wvel_sd              =   2.8444049090603E-05
(PID.TID 0000.0001) %MON dynstat_wvel_del2            =   1.5575585277334E-07
(PID.TID 0000.0001) %MON dynstat_theta_max            =   1.2000000000000E+00
(PID.TID 0000.0001) %MON dynstat_theta_min            =  -1.0000000000000E+00
(PID.TID 0000.0001) %MON dynstat_theta_mean           =   5.6548126018103E-01
(PID.TID 0000.0001) %MON dynstat_theta_sd             =   8.4906368430121E-01
(PID.TID 0000.0001) %MON dynstat_theta_del2           =   2.4298138447954E-06
(PID.TID 0000.0001) %MON dynstat_salt_max             =   3.4700000000000E+01
(PID.TID 0000.0001) %MON dynstat_salt_min             =   3.4000000000000E+01
(PID.TID 0000.0001) %MON dynstat_salt_mean            =   3.4498105802075E+01
(PID.TID 0000.0001) %MON dynstat_salt_sd              =   2.7015685375374E-01
(PID.TID 0000.0001) %MON dynstat_salt_del2            =   7.6394784546172E-07
(PID.TID 0000.0001) %MON advcfl_uvel_max              =   2.3204194584314E-04
(PID.TID 0000.0001) %MON advcfl_vvel_max              =   2.2713919375388E-04
(PID.TID 0000.0001) %MON advcfl_wvel_max              =   1.0262321793639E-03
(PID.TID 0000.0001) %MON advcfl_W_hf_max              =   1.0262321793639E-03
(PID.TID 0000.0001) %MON pe_b_mean                    =  -6.8292239261958E-01
(PID.TID 0000.0001) %MON ke_max                       =   3.4161021043266E-06
(PID.TID 0000.0001) %MON ke_mean                      =   6.1615156700605E-09
(PID.TID 0000.0001) %MON ke_vol                       =   4.6182873424009E+12
(PID.TID 0000.0001) // =======================================================
(PID.TID 0000.0001) // End MONITOR dynamic field statistics
(PID.TID 0000.0001) // =======================================================
(PID.TID 0000.0001) // =======================================================
(PID.TID 0000.0001) // Begin OBCS MONITOR field statistics
(PID.TID 0000.0001) // =======================================================
(PID.TID 0000.0001) %MON obc_N_vVel_max               =   1.9031061265609E-05
(PID.TID 0000.0001) %MON obc_N_vVel_min               =   1.9031061265609E-05
(PID.TID 0000.0001) %MON obc_N_vVel_mean              =   1.9031061265609E-05
(PID.TID 0000.0001) %MON obc_N_vVel_sd                =   2.4062967996220E-12
(PID.TID 0000.0001) %MON obc_N_vVel_Int               =   1.2560500435302E+03
(PID.TID 0000.0001) // =======================================================
(PID.TID 0000.0001) // End OBCS MONITOR field statistics
(PID.TID 0000.0001) // =======================================================
 cg2d: Sum(rhs),rhsMax =   3.01246450359871E+00  4.53054042649068E+02
(PID.TID 0000.0001)      cg2d_init_res =   3.27656680122986E-06
(PID.TID 0000.0001)      cg2d_iters(min,last) =      -1      73
(PID.TID 0000.0001)      cg2d_last_res =   9.46439885782829E-12
(PID.TID 0000.0001) // =======================================================
(PID.TID 0000.0001) // Begin MONITOR dynamic field statistics
(PID.TID 0000.0001) // =======================================================
(PID.TID 0000.0001) %MON time_tsnumber                =                   117
(PID.TID 0000.0001) %MON time_secondsf                =   1.1700000000000E+04
(PID.TID 0000.0001) %MON dynstat_eta_max              =   5.7960088879429E+00
(PID.TID 0000.0001) %MON dynstat_eta_min              =  -1.4178033094479E+01
(PID.TID 0000.0001) %MON dynstat_eta_mean             =  -2.5274244846152E+00
(PID.TID 0000.0001) %MON dynstat_eta_sd               =   4.9421127568409E+00
(PID.TID 0000.0001) %MON dynstat_eta_del2             =   1.9058061585243E-01
(PID.TID 0000.0001) %MON dynstat_uvel_max             =   2.0952065612221E-03
(PID.TID 0000.0001) %MON dynstat_uvel_min             =  -2.3410192854225E-03
(PID.TID 0000.0001) %MON dynstat_uvel_mean            =  -7.2863350705627E-08
(PID.TID 0000.0001) %MON dynstat_uvel_sd              =   6.4055639547481E-05
(PID.TID 0000.0001) %MON dynstat_uvel_del2            =   4.0386882986097E-07
(PID.TID 0000.0001) %MON dynstat_vvel_max             =   2.2895666755911E-03
(PID.TID 0000.0001) %MON dynstat_vvel_min             =  -1.9508104995207E-03
(PID.TID 0000.0001) %MON dynstat_vvel_mean            =   2.4526643882482E-05
(PID.TID 0000.0001) %MON dynstat_vvel_sd              =   8.8352137591329E-05
(PID.TID 0000.0001) %MON dynstat_vvel_del2            =   4.8351878339184E-07
(PID.TID 0000.0001) %MON dynstat_wvel_max             =   1.7318323845153E-04
(PID.TID 0000.0001) %MON dynstat_wvel_min             =  -2.1710410578893E-04
(PID.TID 0000.0001) %MON dynstat_wvel_mean            =   1.4471491014794E-08
(PID.TID 0000.0001) %MON dynstat_wvel_sd              =   2.8168884917073E-05
(PID.TID 0000.0001) %MON dynstat_wvel_del2            =   1.5292623395952E-07
(PID.TID 0000.0001) %MON dynstat_theta_max            =   1.2000000000000E+00
(PID.TID 0000.0001) %MON dynstat_theta_min            =  -1.0000000000000E+00
(PID.TID 0000.0001) %MON dynstat_theta_mean           =   5.6548106652482E-01
(PID.TID 0000.0001) %MON dynstat_theta_sd             =   8.4906363581546E-01
(PID.TID 0000.0001) %MON dynstat_theta_del2           =   2.4167483942283E-06
(PID.TID 0000.0001) %MON dynstat_salt_max             =   3.4700000000000E+01
(PID.TID 0000.0001) %MON dynstat_salt_min             =   3.4000000000000E+01
(PID.TID 0000.0001) %MON dynstat_salt_mean            =   3.4498105724642E+01
(PID.TID 0000.0001) %MON dynstat_salt_sd              =   2.7015684013945E-01
(PID.TID 0000.0001) %MON dynstat_salt_del2            =   7.5968969285154E-07
(PID.TID 0000.0001) %MON advcfl_uvel_max              =   2.3410192854225E-04
(PID.TID 0000.0001) %MON advcfl_vvel_max              =   2.2895666755911E-04
(PID.TID 0000.0001) %MON advcfl_wvel_max              =   1.0855205289447E-03
(PID.TID 0000.0001) %MON advcfl_W_hf_max              =   1.0855205289447E-03
(PID.TID 0000.0001) %MON pe_b_mean                    =  -6.8292717984043E-01
(PID.TID 0000.0001) %MON ke_max                       =   3.4658486601016E-06
(PID.TID 0000.0001) %MON ke_mean                      =   6.2150887834632E-09
(PID.TID 0000.0001) %MON ke_vol                       =   4.6182872275079E+12
(PID.TID 0000.0001) // =======================================================
(PID.TID 0000.0001) // End MONITOR dynamic field statistics
(PID.TID 0000.0001) // =======================================================
(PID.TID 0000.0001) // =======================================================
(PID.TID 0000.0001) // Begin OBCS MONITOR field statistics
(PID.TID 0000.0001) // =======================================================
(PID.TID 0000.0001) %MON obc_N_vVel_max               =   2.1160401129112E-05
(PID.TID 0000.0001) %MON obc_N_vVel_min               =   2.1160401129112E-05
(PID.TID 0000.0001) %MON obc_N_vVel_mean              =   2.1160401129112E-05
(PID.TID 0000.0001) %MON obc_N_vVel_sd                =   5.3806432179950E-12
(PID.TID 0000.0001) %MON obc_N_vVel_Int               =   1.3965864745214E+03
(PID.TID 0000.0001) // =======================================================
(PID.TID 0000.0001) // End OBCS MONITOR field statistics
(PID.TID 0000.0001) // =======================================================
 cg2d: Sum(rhs),rhsMax =   3.01249232816104E+00  4.53054017913919E+02
(PID.TID 0000.0001)      cg2d_init_res =   3.21922250139490E-06
(PID.TID 0000.0001)      cg2d_iters(min,last) =      -1      73
(PID.TID 0000.0001)      cg2d_last_res =   7.52308740620554E-12
(PID.TID 0000.0001) // =======================================================
(PID.TID 0000.0001) // Begin MONITOR dynamic field statistics
(PID.TID 0000.0001) // =======================================================
(PID.TID 0000.0001) %MON time_tsnumber                =                   118
(PID.TID 0000.0001) %MON time_secondsf                =   1.1800000000000E+04
(PID.TID 0000.0001) %MON dynstat_eta_max              =   5.7959686564409E+00
(PID.TID 0000.0001) %MON dynstat_eta_min              =  -1.4178084868282E+01
(PID.TID 0000.0001) %MON dynstat_eta_mean             =  -2.5274476911263E+00
(PID.TID 0000.0001) %MON dynstat_eta_sd               =   4.9421210215158E+00
(PID.TID 0000.0001) %MON dynstat_eta_del2             =   1.9058061437138E-01
(PID.TID 0000.0001) %MON dynstat_uvel_max             =   2.1092585064615E-03
(PID.TID 0000.0001) %MON dynstat_uvel_min             =  -2.3614001109540E-03
(PID.TID 0000.0001) %MON dynstat_uvel_mean            =  -3.4332163515502E-08
(PID.TID 0000.0001) %MON dynstat_uvel_sd              =   6.4313541035889E-05
(PID.TID 0000.0001) %MON dynstat_uvel_del2            =   4.0496597726859E-07
(PID.TID 0000.0001) %MON dynstat_vvel_max             =   2.3068445308656E-03
(PID.TID 0000.0001) %MON dynstat_vvel_min             =  -1.9630035894895E-03
(PID.TID 0000.0001) %MON dynstat_vvel_mean            =   2.5254781591881E-05
(PID.TID 0000.0001) %MON dynstat_vvel_sd              =   8.8374041949774E-05
(PID.TID 0000.0001) %MON dynstat_vvel_del2            =   4.8316750560594E-07
(PID.TID 0000.0001) %MON dynstat_wvel_max             =   1.7438440473715E-04
(PID.TID 0000.0001) %MON dynstat_wvel_min             =  -2.2427604191995E-04
(PID.TID 0000.0001) %MON dynstat_wvel_mean            =   7.7191954149534E-09
(PID.TID 0000.0001) %MON dynstat_wvel_sd              =   2.7937444657089E-05
(PID.TID 0000.0001) %MON dynstat_wvel_del2            =   1.5072815068006E-07
(PID.TID 0000.0001) %MON dynstat_theta_max            =   1.2000000000000E+00
(PID.TID 0000.0001) %MON dynstat_theta_min            =  -1.0000000000000E+00
(PID.TID 0000.0001) %MON dynstat_theta_mean           =   5.6548087368898E-01
(PID.TID 0000.0001) %MON dynstat_theta_sd             =   8.4906358723880E-01
(PID.TID 0000.0001) %MON dynstat_theta_del2           =   2.4035003065312E-06
(PID.TID 0000.0001) %MON dynstat_salt_max             =   3.4700000000000E+01
(PID.TID 0000.0001) %MON dynstat_salt_min             =   3.4000000000000E+01
(PID.TID 0000.0001) %MON dynstat_salt_mean            =   3.4498105647469E+01
(PID.TID 0000.0001) %MON dynstat_salt_sd              =   2.7015682649831E-01
(PID.TID 0000.0001) %MON dynstat_salt_del2            =   7.5537534678838E-07
(PID.TID 0000.0001) %MON advcfl_uvel_max              =   2.3614001109540E-04
(PID.TID 0000.0001) %MON advcfl_vvel_max              =   2.3068445308656E-04
(PID.TID 0000.0001) %MON advcfl_wvel_max              =   1.1213802095997E-03
(PID.TID 0000.0001) %MON advcfl_W_hf_max              =   1.1213802095997E-03
(PID.TID 0000.0001) %MON pe_b_mean                    =  -6.8293208061928E-01
(PID.TID 0000.0001) %MON ke_max                       =   3.5148561120559E-06
(PID.TID 0000.0001) %MON ke_mean                      =   6.2511772286596E-09
(PID.TID 0000.0001) %MON ke_vol                       =   4.6182870985614E+12
(PID.TID 0000.0001) // =======================================================
(PID.TID 0000.0001) // End MONITOR dynamic field statistics
(PID.TID 0000.0001) // =======================================================
(PID.TID 0000.0001) // =======================================================
(PID.TID 0000.0001) // Begin OBCS MONITOR field statistics
(PID.TID 0000.0001) // =======================================================
(PID.TID 0000.0001) %MON obc_N_vVel_max               =   2.2508951045787E-05
(PID.TID 0000.0001) %MON obc_N_vVel_min               =   2.2508951045787E-05
(PID.TID 0000.0001) %MON obc_N_vVel_mean              =   2.2508951045787E-05
(PID.TID 0000.0001) %MON obc_N_vVel_sd                =  -2.2747466845208E-24
(PID.TID 0000.0001) %MON obc_N_vVel_Int               =   1.4855907690219E+03
(PID.TID 0000.0001) // =======================================================
(PID.TID 0000.0001) // End OBCS MONITOR field statistics
(PID.TID 0000.0001) // =======================================================
 cg2d: Sum(rhs),rhsMax =   3.01252092591644E+00  4.53053993234708E+02
(PID.TID 0000.0001)      cg2d_init_res =   3.17219182123511E-06
(PID.TID 0000.0001)      cg2d_iters(min,last) =      -1      73
(PID.TID 0000.0001)      cg2d_last_res =   6.71761328943096E-12
(PID.TID 0000.0001) // =======================================================
(PID.TID 0000.0001) // Begin MONITOR dynamic field statistics
(PID.TID 0000.0001) // =======================================================
(PID.TID 0000.0001) %MON time_tsnumber                =                   119
(PID.TID 0000.0001) %MON time_secondsf                =   1.1900000000000E+04
(PID.TID 0000.0001) %MON dynstat_eta_max              =   5.7959284411893E+00
(PID.TID 0000.0001) %MON dynstat_eta_min              =  -1.4178135497644E+01
(PID.TID 0000.0001) %MON dynstat_eta_mean             =  -2.5274715466473E+00
(PID.TID 0000.0001) %MON dynstat_eta_sd               =   4.9421288199902E+00
(PID.TID 0000.0001) %MON dynstat_eta_del2             =   1.9058061295070E-01
(PID.TID 0000.0001) %MON dynstat_uvel_max             =   2.1230137143569E-03
(PID.TID 0000.0001) %MON dynstat_uvel_min             =  -2.3815655306045E-03
(PID.TID 0000.0001) %MON dynstat_uvel_mean            =   2.4761694798523E-09
(PID.TID 0000.0001) %MON dynstat_uvel_sd              =   6.4566181341408E-05
(PID.TID 0000.0001) %MON dynstat_uvel_del2            =   4.0601325069263E-07
(PID.TID 0000.0001) %MON dynstat_vvel_max             =   2.3232673684497E-03
(PID.TID 0000.0001) %MON dynstat_vvel_min             =  -1.9754877568072E-03
(PID.TID 0000.0001) %MON dynstat_vvel_mean            =   2.5182319449118E-05
(PID.TID 0000.0001) %MON dynstat_vvel_sd              =   8.8429415665123E-05
(PID.TID 0000.0001) %MON dynstat_vvel_del2            =   4.8342954650994E-07
(PID.TID 0000.0001) %MON dynstat_wvel_max             =   1.7557794290067E-04
(PID.TID 0000.0001) %MON dynstat_wvel_min             =  -2.2639851263640E-04
(PID.TID 0000.0001) %MON dynstat_wvel_mean            =   1.2288726544870E-09
(PID.TID 0000.0001) %MON dynstat_wvel_sd              =   2.7768542484772E-05
(PID.TID 0000.0001) %MON dynstat_wvel_del2            =   1.4936460360345E-07
(PID.TID 0000.0001) %MON dynstat_theta_max            =   1.2000000000000E+00
(PID.TID 0000.0001) %MON dynstat_theta_min            =  -1.0000000000000E+00
(PID.TID 0000.0001) %MON dynstat_theta_mean           =   5.6548068134809E-01
(PID.TID 0000.0001) %MON dynstat_theta_sd             =   8.4906353875940E-01
(PID.TID 0000.0001) %MON dynstat_theta_del2           =   2.3899984019841E-06
(PID.TID 0000.0001) %MON dynstat_salt_max             =   3.4700000000000E+01
(PID.TID 0000.0001) %MON dynstat_salt_min             =   3.4000000000000E+01
(PID.TID 0000.0001) %MON dynstat_salt_mean            =   3.4498105570453E+01
(PID.TID 0000.0001) %MON dynstat_salt_sd              =   2.7015681288970E-01
(PID.TID 0000.0001) %MON dynstat_salt_del2            =   7.5098182852057E-07
(PID.TID 0000.0001) %MON advcfl_uvel_max              =   2.3815655306045E-04
(PID.TID 0000.0001) %MON advcfl_vvel_max              =   2.3232673684497E-04
(PID.TID 0000.0001) %MON advcfl_wvel_max              =   1.1319925631820E-03
(PID.TID 0000.0001) %MON advcfl_W_hf_max              =   1.1319925631820E-03
(PID.TID 0000.0001) %MON pe_b_mean                    =  -6.8293692743203E-01
(PID.TID 0000.0001) %MON ke_max                       =   3.5631283000786E-06
(PID.TID 0000.0001) %MON ke_mean                      =   6.2701231989431E-09
(PID.TID 0000.0001) %MON ke_vol                       =   4.6182869607147E+12
(PID.TID 0000.0001) // =======================================================
(PID.TID 0000.0001) // End MONITOR dynamic field statistics
(PID.TID 0000.0001) // =======================================================
(PID.TID 0000.0001) // =======================================================
(PID.TID 0000.0001) // Begin OBCS MONITOR field statistics
(PID.TID 0000.0001) // =======================================================
(PID.TID 0000.0001) %MON obc_N_vVel_max               =   2.3093096885782E-05
(PID.TID 0000.0001) %MON obc_N_vVel_min               =   2.3093096885782E-05
(PID.TID 0000.0001) %MON obc_N_vVel_mean              =   2.3093096885782E-05
(PID.TID 0000.0001) %MON obc_N_vVel_sd                =  -2.2333876538932E-23
(PID.TID 0000.0001) %MON obc_N_vVel_Int               =   1.5241443944616E+03
(PID.TID 0000.0001) // =======================================================
(PID.TID 0000.0001) // End OBCS MONITOR field statistics
(PID.TID 0000.0001) // =======================================================
 cg2d: Sum(rhs),rhsMax =   3.01254933122884E+00  4.53053969116048E+02
(PID.TID 0000.0001)      cg2d_init_res =   3.13991862768592E-06
(PID.TID 0000.0001)      cg2d_iters(min,last) =      -1      72
(PID.TID 0000.0001)      cg2d_last_res =   9.80971749257573E-12
(PID.TID 0000.0001) // =======================================================
(PID.TID 0000.0001) // Begin MONITOR dynamic field statistics
(PID.TID 0000.0001) // =======================================================
(PID.TID 0000.0001) %MON time_tsnumber                =                   120
(PID.TID 0000.0001) %MON time_secondsf                =   1.2000000000000E+04
(PID.TID 0000.0001) %MON dynstat_eta_max              =   5.7958894942466E+00
(PID.TID 0000.0001) %MON dynstat_eta_min              =  -1.4178183437872E+01
(PID.TID 0000.0001) %MON dynstat_eta_mean             =  -2.5274952438354E+00
(PID.TID 0000.0001) %MON dynstat_eta_sd               =   4.9421359365419E+00
(PID.TID 0000.0001) %MON dynstat_eta_del2             =   1.9058061160326E-01
(PID.TID 0000.0001) %MON dynstat_uvel_max             =   2.1364740364227E-03
(PID.TID 0000.0001) %MON dynstat_uvel_min             =  -2.4015194180567E-03
(PID.TID 0000.0001) %MON dynstat_uvel_mean            =   3.6660171328369E-08
(PID.TID 0000.0001) %MON dynstat_uvel_sd              =   6.4813519148407E-05
(PID.TID 0000.0001) %MON dynstat_uvel_del2            =   4.0701182472608E-07
(PID.TID 0000.0001) %MON dynstat_vvel_max             =   2.3388916235447E-03
(PID.TID 0000.0001) %MON dynstat_vvel_min             =  -1.9882106008993E-03
(PID.TID 0000.0001) %MON dynstat_vvel_mean            =   2.4369051276091E-05
(PID.TID 0000.0001) %MON dynstat_vvel_sd              =   8.8526362301149E-05
(PID.TID 0000.0001) %MON dynstat_vvel_del2            =   4.8430158300052E-07
(PID.TID 0000.0001) %MON dynstat_wvel_max             =   1.8253729196358E-04
(PID.TID 0000.0001) %MON dynstat_wvel_min             =  -2.2346125908841E-04
(PID.TID 0000.0001) %MON dynstat_wvel_mean            =  -4.8265801749879E-09
(PID.TID 0000.0001) %MON dynstat_wvel_sd              =   2.7671812540419E-05
(PID.TID 0000.0001) %MON dynstat_wvel_del2            =   1.4891300437190E-07
(PID.TID 0000.0001) %MON dynstat_theta_max            =   1.2000000000000E+00
(PID.TID 0000.0001) %MON dynstat_theta_min            =  -1.0000000000000E+00
(PID.TID 0000.0001) %MON dynstat_theta_mean           =   5.6548048918530E-01
(PID.TID 0000.0001) %MON dynstat_theta_sd             =   8.4906349054381E-01
(PID.TID 0000.0001) %MON dynstat_theta_del2           =   2.3762197577195E-06
(PID.TID 0000.0001) %MON dynstat_salt_max             =   3.4700000000000E+01
(PID.TID 0000.0001) %MON dynstat_salt_min             =   3.4000000000000E+01
(PID.TID 0000.0001) %MON dynstat_salt_mean            =   3.4498105493494E+01
(PID.TID 0000.0001) %MON dynstat_salt_sd              =   2.7015679936590E-01
(PID.TID 0000.0001) %MON dynstat_salt_del2            =   7.4650166278427E-07
(PID.TID 0000.0001) %MON advcfl_uvel_max              =   2.4015194180567E-04
(PID.TID 0000.0001) %MON advcfl_vvel_max              =   2.3388916235447E-04
(PID.TID 0000.0001) %MON advcfl_wvel_max              =   1.1173062954421E-03
(PID.TID 0000.0001) %MON advcfl_W_hf_max              =   1.1173062954421E-03
(PID.TID 0000.0001) %MON pe_b_mean                    =  -6.8294156641657E-01
(PID.TID 0000.0001) %MON ke_max                       =   3.6106788452042E-06
(PID.TID 0000.0001) %MON ke_mean                      =   6.2742755110162E-09
(PID.TID 0000.0001) %MON ke_vol                       =   4.6182868190129E+12
(PID.TID 0000.0001) // =======================================================
(PID.TID 0000.0001) // End MONITOR dynamic field statistics
(PID.TID 0000.0001) // =======================================================
(PID.TID 0000.0001) // =======================================================
(PID.TID 0000.0001) // Begin OBCS MONITOR field statistics
(PID.TID 0000.0001) // =======================================================
(PID.TID 0000.0001) %MON obc_N_vVel_max               =   2.2950638745611E-05
(PID.TID 0000.0001) %MON obc_N_vVel_min               =   2.2950638745611E-05
(PID.TID 0000.0001) %MON obc_N_vVel_mean              =   2.2950638745611E-05
(PID.TID 0000.0001) %MON obc_N_vVel_sd                =   2.9295048822690E-12
(PID.TID 0000.0001) %MON obc_N_vVel_Int               =   1.5147421572103E+03
(PID.TID 0000.0001) // =======================================================
(PID.TID 0000.0001) // End OBCS MONITOR field statistics
(PID.TID 0000.0001) // =======================================================
 cg2d: Sum(rhs),rhsMax =   3.01257665358365E+00  4.53053946029643E+02
(PID.TID 0000.0001)      cg2d_init_res =   3.12455200708094E-06
(PID.TID 0000.0001)      cg2d_iters(min,last) =      -1      72
(PID.TID 0000.0001)      cg2d_last_res =   9.91543228894747E-12
(PID.TID 0000.0001) // =======================================================
(PID.TID 0000.0001) // Begin MONITOR dynamic field statistics
(PID.TID 0000.0001) // =======================================================
(PID.TID 0000.0001) %MON time_tsnumber                =                   121
(PID.TID 0000.0001) %MON time_secondsf                =   1.2100000000000E+04
(PID.TID 0000.0001) %MON dynstat_eta_max              =   5.7958529414944E+00
(PID.TID 0000.0001) %MON dynstat_eta_min              =  -1.4178227331321E+01
(PID.TID 0000.0001) %MON dynstat_eta_mean             =  -2.5275180381905E+00
(PID.TID 0000.0001) %MON dynstat_eta_sd               =   4.9421421911703E+00
(PID.TID 0000.0001) %MON dynstat_eta_del2             =   1.9058061033987E-01
(PID.TID 0000.0001) %MON dynstat_uvel_max             =   2.1496425059144E-03
(PID.TID 0000.0001) %MON dynstat_uvel_min             =  -2.4212658600131E-03
(PID.TID 0000.0001) %MON dynstat_uvel_mean            =   6.7440540155103E-08
(PID.TID 0000.0001) %MON dynstat_uvel_sd              =   6.5055540430740E-05
(PID.TID 0000.0001) %MON dynstat_uvel_del2            =   4.0796293800057E-07
(PID.TID 0000.0001) %MON dynstat_vvel_max             =   2.3537856580571E-03
(PID.TID 0000.0001) %MON dynstat_vvel_min             =  -2.0011083199218E-03
(PID.TID 0000.0001) %MON dynstat_vvel_mean            =   2.2892370889984E-05
(PID.TID 0000.0001) %MON dynstat_vvel_sd              =   8.8666828165484E-05
(PID.TID 0000.0001) %MON dynstat_vvel_del2            =   4.8569667048627E-07
(PID.TID 0000.0001) %MON dynstat_wvel_max             =   1.8812427359762E-04
(PID.TID 0000.0001) %MON dynstat_wvel_min             =  -2.1557719670085E-04
(PID.TID 0000.0001) %MON dynstat_wvel_mean            =  -1.0299475820425E-08
(PID.TID 0000.0001) %MON dynstat_wvel_sd              =   2.7646599137151E-05
(PID.TID 0000.0001) %MON dynstat_wvel_del2            =   1.4931487655268E-07
(PID.TID 0000.0001) %MON dynstat_theta_max            =   1.2000000000000E+00
(PID.TID 0000.0001) %MON dynstat_theta_min            =  -1.0000000000000E+00
(PID.TID 0000.0001) %MON dynstat_theta_mean           =   5.6548029690178E-01
(PID.TID 0000.0001) %MON dynstat_theta_sd             =   8.4906344270225E-01
(PID.TID 0000.0001) %MON dynstat_theta_del2           =   2.3621891952338E-06
(PID.TID 0000.0001) %MON dynstat_salt_max             =   3.4700000000000E+01
(PID.TID 0000.0001) %MON dynstat_salt_min             =   3.4000000000000E+01
(PID.TID 0000.0001) %MON dynstat_salt_mean            =   3.4498105416496E+01
(PID.TID 0000.0001) %MON dynstat_salt_sd              =   2.7015678596163E-01
(PID.TID 0000.0001) %MON dynstat_salt_del2            =   7.4194277177352E-07
(PID.TID 0000.0001) %MON advcfl_uvel_max              =   2.4212658600131E-04
(PID.TID 0000.0001) %MON advcfl_vvel_max              =   2.3537856580571E-04
(PID.TID 0000.0001) %MON advcfl_wvel_max              =   1.0778859835043E-03
(PID.TID 0000.0001) %MON advcfl_W_hf_max              =   1.0778859835043E-03
(PID.TID 0000.0001) %MON pe_b_mean                    =  -6.8294586094036E-01
(PID.TID 0000.0001) %MON ke_max                       =   3.6575298309620E-06
(PID.TID 0000.0001) %MON ke_mean                      =   6.2673786307936E-09
(PID.TID 0000.0001) %MON ke_vol                       =   4.6182866782516E+12
(PID.TID 0000.0001) // =======================================================
(PID.TID 0000.0001) // End MONITOR dynamic field statistics
(PID.TID 0000.0001) // =======================================================
(PID.TID 0000.0001) // =======================================================
(PID.TID 0000.0001) // Begin OBCS MONITOR field statistics
(PID.TID 0000.0001) // =======================================================
(PID.TID 0000.0001) %MON obc_N_vVel_max               =   2.2138130195510E-05
(PID.TID 0000.0001) %MON obc_N_vVel_min               =   2.2138130195510E-05
(PID.TID 0000.0001) %MON obc_N_vVel_mean              =   2.2138130195510E-05
(PID.TID 0000.0001) %MON obc_N_vVel_sd                =   2.6123246455145E-12
(PID.TID 0000.0001) %MON obc_N_vVel_Int               =   1.4611165929036E+03
(PID.TID 0000.0001) // =======================================================
(PID.TID 0000.0001) // End OBCS MONITOR field statistics
(PID.TID 0000.0001) // =======================================================
 cg2d: Sum(rhs),rhsMax =   3.01260209852436E+00  4.53053924400873E+02
(PID.TID 0000.0001)      cg2d_init_res =   3.12551198116711E-06
(PID.TID 0000.0001)      cg2d_iters(min,last) =      -1      73
(PID.TID 0000.0001)      cg2d_last_res =   9.16705598877157E-12
(PID.TID 0000.0001) // =======================================================
(PID.TID 0000.0001) // Begin MONITOR dynamic field statistics
(PID.TID 0000.0001) // =======================================================
(PID.TID 0000.0001) %MON time_tsnumber                =                   122
(PID.TID 0000.0001) %MON time_secondsf                =   1.2200000000000E+04
(PID.TID 0000.0001) %MON dynstat_eta_max              =   5.7958197564951E+00
(PID.TID 0000.0001) %MON dynstat_eta_min              =  -1.4178266037210E+01
(PID.TID 0000.0001) %MON dynstat_eta_mean             =  -2.5275392655459E+00
(PID.TID 0000.0001) %MON dynstat_eta_sd               =   4.9421474423468E+00
(PID.TID 0000.0001) %MON dynstat_eta_del2             =   1.9058060916936E-01
(PID.TID 0000.0001) %MON dynstat_uvel_max             =   2.1625231715454E-03
(PID.TID 0000.0001) %MON dynstat_uvel_min             =  -2.4408089879140E-03
(PID.TID 0000.0001) %MON dynstat_uvel_mean            =   9.4171408508317E-08
(PID.TID 0000.0001) %MON dynstat_uvel_sd              =   6.5292258690467E-05
(PID.TID 0000.0001) %MON dynstat_uvel_del2            =   4.0886786883332E-07
(PID.TID 0000.0001) %MON dynstat_vvel_max             =   2.3680268419017E-03
(PID.TID 0000.0001) %MON dynstat_vvel_min             =  -2.0141085265131E-03
(PID.TID 0000.0001) %MON dynstat_vvel_mean            =   2.0843722007771E-05
(PID.TID 0000.0001) %MON dynstat_vvel_sd              =   8.8846617381217E-05
(PID.TID 0000.0001) %MON dynstat_vvel_del2            =   4.8746027663857E-07
(PID.TID 0000.0001) %MON dynstat_wvel_max             =   1.9024137802811E-04
(PID.TID 0000.0001) %MON dynstat_wvel_min             =  -2.0299604183276E-04
(PID.TID 0000.0001) %MON dynstat_wvel_mean            =  -1.5070016203529E-08
(PID.TID 0000.0001) %MON dynstat_wvel_sd              =   2.7682486460961E-05
(PID.TID 0000.0001) %MON dynstat_wvel_del2            =   1.5039195130899E-07
(PID.TID 0000.0001) %MON dynstat_theta_max            =   1.2000000000000E+00
(PID.TID 0000.0001) %MON dynstat_theta_min            =  -1.0000000000000E+00
(PID.TID 0000.0001) %MON dynstat_theta_mean           =   5.6548010422360E-01
(PID.TID 0000.0001) %MON dynstat_theta_sd             =   8.4906339528586E-01
(PID.TID 0000.0001) %MON dynstat_theta_del2           =   2.3479773416552E-06
(PID.TID 0000.0001) %MON dynstat_salt_max             =   3.4700000000000E+01
(PID.TID 0000.0001) %MON dynstat_salt_min             =   3.4000000000000E+01
(PID.TID 0000.0001) %MON dynstat_salt_mean            =   3.4498105339372E+01
(PID.TID 0000.0001) %MON dynstat_salt_sd              =   2.7015677269258E-01
(PID.TID 0000.0001) %MON dynstat_salt_del2            =   7.3732781089287E-07
(PID.TID 0000.0001) %MON advcfl_uvel_max              =   2.4408089879140E-04
(PID.TID 0000.0001) %MON advcfl_vvel_max              =   2.3680268419017E-04
(PID.TID 0000.0001) %MON advcfl_wvel_max              =   1.0149802091638E-03
(PID.TID 0000.0001) %MON advcfl_W_hf_max              =   1.0149802091638E-03
(PID.TID 0000.0001) %MON pe_b_mean                    =  -6.8294969439902E-01
(PID.TID 0000.0001) %MON ke_max                       =   3.7037102085299E-06
(PID.TID 0000.0001) %MON ke_mean                      =   6.2538930884577E-09
(PID.TID 0000.0001) %MON ke_vol                       =   4.6182865428531E+12
(PID.TID 0000.0001) // =======================================================
(PID.TID 0000.0001) // End MONITOR dynamic field statistics
(PID.TID 0000.0001) // =======================================================
(PID.TID 0000.0001) // =======================================================
(PID.TID 0000.0001) // Begin OBCS MONITOR field statistics
(PID.TID 0000.0001) // =======================================================
(PID.TID 0000.0001) %MON obc_N_vVel_max               =   2.0727871443272E-05
(PID.TID 0000.0001) %MON obc_N_vVel_min               =   2.0727871443271E-05
(PID.TID 0000.0001) %MON obc_N_vVel_mean              =   2.0727871443272E-05
(PID.TID 0000.0001) %MON obc_N_vVel_sd                =  -1.5613034061938E-23
(PID.TID 0000.0001) %MON obc_N_vVel_Int               =   1.3680395152559E+03
(PID.TID 0000.0001) // =======================================================
(PID.TID 0000.0001) // End OBCS MONITOR field statistics
(PID.TID 0000.0001) // =======================================================
 cg2d: Sum(rhs),rhsMax =   3.01262498426958E+00  4.53053904593598E+02
(PID.TID 0000.0001)      cg2d_init_res =   3.13982158245465E-06
(PID.TID 0000.0001)      cg2d_iters(min,last) =      -1      78
(PID.TID 0000.0001)      cg2d_last_res =   7.75075782117079E-12
(PID.TID 0000.0001) // =======================================================
(PID.TID 0000.0001) // Begin MONITOR dynamic field statistics
(PID.TID 0000.0001) // =======================================================
(PID.TID 0000.0001) %MON time_tsnumber                =                   123
(PID.TID 0000.0001) %MON time_secondsf                =   1.2300000000000E+04
(PID.TID 0000.0001) %MON dynstat_eta_max              =   5.7957907414653E+00
(PID.TID 0000.0001) %MON dynstat_eta_min              =  -1.4178298655526E+01
(PID.TID 0000.0001) %MON dynstat_eta_mean             =  -2.5275583559251E+00
(PID.TID 0000.0001) %MON dynstat_eta_sd               =   4.9421515884111E+00
(PID.TID 0000.0001) %MON dynstat_eta_del2             =   1.9058060809834E-01
(PID.TID 0000.0001) %MON dynstat_uvel_max             =   2.1751209429350E-03
(PID.TID 0000.0001) %MON dynstat_uvel_min             =  -2.4601529209747E-03
(PID.TID 0000.0001) %MON dynstat_uvel_mean            =   1.1635490997877E-07
(PID.TID 0000.0001) %MON dynstat_uvel_sd              =   6.5523714726511E-05
(PID.TID 0000.0001) %MON dynstat_uvel_del2            =   4.0972791268178E-07
(PID.TID 0000.0001) %MON dynstat_vvel_max             =   2.3816987439993E-03
(PID.TID 0000.0001) %MON dynstat_vvel_min             =  -2.0271330595936E-03
(PID.TID 0000.0001) %MON dynstat_vvel_mean            =   1.8324884879070E-05
(PID.TID 0000.0001) %MON dynstat_vvel_sd              =   8.9056256000226E-05
(PID.TID 0000.0001) %MON dynstat_vvel_del2            =   4.8939458895135E-07
(PID.TID 0000.0001) %MON dynstat_wvel_max             =   1.9065671066227E-04
(PID.TID 0000.0001) %MON dynstat_wvel_min             =  -1.8622991363977E-04
(PID.TID 0000.0001) %MON dynstat_wvel_mean            =  -1.9047813821722E-08
(PID.TID 0000.0001) %MON dynstat_wvel_sd              =   2.7761321257875E-05
(PID.TID 0000.0001) %MON dynstat_wvel_del2            =   1.5188340917534E-07
(PID.TID 0000.0001) %MON dynstat_theta_max            =   1.2000000000000E+00
(PID.TID 0000.0001) %MON dynstat_theta_min            =  -1.0000000000000E+00
(PID.TID 0000.0001) %MON dynstat_theta_mean           =   5.6547991090799E-01
(PID.TID 0000.0001) %MON dynstat_theta_sd             =   8.4906334829016E-01
(PID.TID 0000.0001) %MON dynstat_theta_del2           =   2.3336866094610E-06
(PID.TID 0000.0001) %MON dynstat_salt_max             =   3.4700000000000E+01
(PID.TID 0000.0001) %MON dynstat_salt_min             =   3.4000000000000E+01
(PID.TID 0000.0001) %MON dynstat_salt_mean            =   3.4498105262045E+01
(PID.TID 0000.0001) %MON dynstat_salt_sd              =   2.7015675955695E-01
(PID.TID 0000.0001) %MON dynstat_salt_del2            =   7.3268976389726E-07
(PID.TID 0000.0001) %MON advcfl_uvel_max              =   2.4601529209747E-04
(PID.TID 0000.0001) %MON advcfl_vvel_max              =   2.3816987439993E-04
(PID.TID 0000.0001) %MON advcfl_wvel_max              =   9.5328355331136E-04
(PID.TID 0000.0001) %MON advcfl_W_hf_max              =   9.5328355331136E-04
(PID.TID 0000.0001) %MON pe_b_mean                    =  -6.8295297222161E-01
(PID.TID 0000.0001) %MON ke_max                       =   3.7492541393735E-06
(PID.TID 0000.0001) %MON ke_mean                      =   6.2383405193478E-09
(PID.TID 0000.0001) %MON ke_vol                       =   4.6182864167627E+12
(PID.TID 0000.0001) // =======================================================
(PID.TID 0000.0001) // End MONITOR dynamic field statistics
(PID.TID 0000.0001) // =======================================================
(PID.TID 0000.0001) // =======================================================
(PID.TID 0000.0001) // Begin OBCS MONITOR field statistics
(PID.TID 0000.0001) // =======================================================
(PID.TID 0000.0001) %MON obc_N_vVel_max               =   1.8804634411477E-05
(PID.TID 0000.0001) %MON obc_N_vVel_min               =   1.8804634411476E-05
(PID.TID 0000.0001) %MON obc_N_vVel_mean              =   1.8804634411476E-05
(PID.TID 0000.0001) %MON obc_N_vVel_sd                =   5.7566416677092E-12
(PID.TID 0000.0001) %MON obc_N_vVel_Int               =   1.2411058711574E+03
(PID.TID 0000.0001) // =======================================================
(PID.TID 0000.0001) // End OBCS MONITOR field statistics
(PID.TID 0000.0001) // =======================================================
 cg2d: Sum(rhs),rhsMax =   3.01264475376628E+00  4.53053886902045E+02
(PID.TID 0000.0001)      cg2d_init_res =   3.16270946492750E-06
(PID.TID 0000.0001)      cg2d_iters(min,last) =      -1      78
(PID.TID 0000.0001)      cg2d_last_res =   8.32753000905725E-12
(PID.TID 0000.0001) // =======================================================
(PID.TID 0000.0001) // Begin MONITOR dynamic field statistics
(PID.TID 0000.0001) // =======================================================
(PID.TID 0000.0001) %MON time_tsnumber                =                   124
(PID.TID 0000.0001) %MON time_secondsf                =   1.2400000000000E+04
(PID.TID 0000.0001) %MON dynstat_eta_max              =   5.7957665202909E+00
(PID.TID 0000.0001) %MON dynstat_eta_min              =  -1.4178324521781E+01
(PID.TID 0000.0001) %MON dynstat_eta_mean             =  -2.5275748436090E+00
(PID.TID 0000.0001) %MON dynstat_eta_sd               =   4.9421545678012E+00
(PID.TID 0000.0001) %MON dynstat_eta_del2             =   1.9058060713257E-01
(PID.TID 0000.0001) %MON dynstat_uvel_max             =   2.1874414515146E-03
(PID.TID 0000.0001) %MON dynstat_uvel_min             =  -2.4793016627407E-03
(PID.TID 0000.0001) %MON dynstat_uvel_mean            =   1.3363271206510E-07
(PID.TID 0000.0001) %MON dynstat_uvel_sd              =   6.5749974500495E-05
(PID.TID 0000.0001) %MON dynstat_uvel_del2            =   4.1054435369682E-07
(PID.TID 0000.0001) %MON dynstat_vvel_max             =   2.3948881268883E-03
(PID.TID 0000.0001) %MON dynstat_vvel_min             =  -2.0401005926622E-03
(PID.TID 0000.0001) %MON dynstat_vvel_mean            =   1.5444230678482E-05
(PID.TID 0000.0001) %MON dynstat_vvel_sd              =   8.9282538376729E-05
(PID.TID 0000.0001) %MON dynstat_vvel_del2            =   4.9128686469856E-07
(PID.TID 0000.0001) %MON dynstat_wvel_max             =   1.9024584857572E-04
(PID.TID 0000.0001) %MON dynstat_wvel_min             =  -1.6558701337111E-04
(PID.TID 0000.0001) %MON dynstat_wvel_mean            =  -2.2172185886276E-08
(PID.TID 0000.0001) %MON dynstat_wvel_sd              =   2.7860263851444E-05
(PID.TID 0000.0001) %MON dynstat_wvel_del2            =   1.5349284008594E-07
(PID.TID 0000.0001) %MON dynstat_theta_max            =   1.2000000000000E+00
(PID.TID 0000.0001) %MON dynstat_theta_min            =  -1.0000000000000E+00
(PID.TID 0000.0001) %MON dynstat_theta_mean           =   5.6547971674829E-01
(PID.TID 0000.0001) %MON dynstat_theta_sd             =   8.4906330175592E-01
(PID.TID 0000.0001) %MON dynstat_theta_del2           =   2.3194358354696E-06
(PID.TID 0000.0001) %MON dynstat_salt_max             =   3.4700000000000E+01
(PID.TID 0000.0001) %MON dynstat_salt_min             =   3.4000000000000E+01
(PID.TID 0000.0001) %MON dynstat_salt_mean            =   3.4498105184450E+01
(PID.TID 0000.0001) %MON dynstat_salt_sd              =   2.7015674656717E-01
(PID.TID 0000.0001) %MON dynstat_salt_del2            =   7.2806692400448E-07
(PID.TID 0000.0001) %MON advcfl_uvel_max              =   2.4793016627407E-04
(PID.TID 0000.0001) %MON advcfl_vvel_max              =   2.3948881268883E-04
(PID.TID 0000.0001) %MON advcfl_wvel_max              =   9.5122924287858E-04
(PID.TID 0000.0001) %MON advcfl_W_hf_max              =   9.5122924287858E-04
(PID.TID 0000.0001) %MON pe_b_mean                    =  -6.8295562308651E-01
(PID.TID 0000.0001) %MON ke_max                       =   3.7941993644003E-06
(PID.TID 0000.0001) %MON ke_mean                      =   6.2247494311549E-09
(PID.TID 0000.0001) %MON ke_vol                       =   4.6182863033658E+12
(PID.TID 0000.0001) // =======================================================
(PID.TID 0000.0001) // End MONITOR dynamic field statistics
(PID.TID 0000.0001) // =======================================================
(PID.TID 0000.0001) // =======================================================
(PID.TID 0000.0001) // Begin OBCS MONITOR field statistics
(PID.TID 0000.0001) // =======================================================
(PID.TID 0000.0001) %MON obc_N_vVel_max               =   1.6462251951185E-05
(PID.TID 0000.0001) %MON obc_N_vVel_min               =   1.6462251951184E-05
(PID.TID 0000.0001) %MON obc_N_vVel_mean              =   1.6462251951185E-05
(PID.TID 0000.0001) %MON obc_N_vVel_sd                =  -1.9645539548134E-23
(PID.TID 0000.0001) %MON obc_N_vVel_Int               =   1.0865086287782E+03
(PID.TID 0000.0001) // =======================================================
(PID.TID 0000.0001) // End OBCS MONITOR field statistics
(PID.TID 0000.0001) // =======================================================
 cg2d: Sum(rhs),rhsMax =   3.01266098226904E+00  4.53053871541693E+02
(PID.TID 0000.0001)      cg2d_init_res =   3.18839696495702E-06
(PID.TID 0000.0001)      cg2d_iters(min,last) =      -1      78
(PID.TID 0000.0001)      cg2d_last_res =   8.44295235453607E-12
(PID.TID 0000.0001) // =======================================================
(PID.TID 0000.0001) // Begin MONITOR dynamic field statistics
(PID.TID 0000.0001) // =======================================================
(PID.TID 0000.0001) %MON time_tsnumber                =                   125
(PID.TID 0000.0001) %MON time_secondsf                =   1.2500000000000E+04
(PID.TID 0000.0001) %MON dynstat_eta_max              =   5.7957475292188E+00
(PID.TID 0000.0001) %MON dynstat_eta_min              =  -1.4178343222996E+01
(PID.TID 0000.0001) %MON dynstat_eta_mean             =  -2.5275883734437E+00
(PID.TID 0000.0001) %MON dynstat_eta_sd               =   4.9421563578858E+00
(PID.TID 0000.0001) %MON dynstat_eta_del2             =   1.9058060627370E-01
(PID.TID 0000.0001) %MON dynstat_uvel_max             =   2.1994908326075E-03
(PID.TID 0000.0001) %MON dynstat_uvel_min             =  -2.4982589716902E-03
(PID.TID 0000.0001) %MON dynstat_uvel_mean            =   1.4580830474538E-07
(PID.TID 0000.0001) %MON dynstat_uvel_sd              =   6.5971127857009E-05
(PID.TID 0000.0001) %MON dynstat_uvel_del2            =   4.1131843928807E-07
(PID.TID 0000.0001) %MON dynstat_vvel_max             =   2.4076822952495E-03
(PID.TID 0000.0001) %MON dynstat_vvel_min             =  -2.0529295020424E-03
(PID.TID 0000.0001) %MON dynstat_vvel_mean            =   1.2313035527876E-05
(PID.TID 0000.0001) %MON dynstat_vvel_sd              =   8.9510498779876E-05
(PID.TID 0000.0001) %MON dynstat_vvel_del2            =   4.9293750051054E-07
(PID.TID 0000.0001) %MON dynstat_wvel_max             =   1.8603476664554E-04
(PID.TID 0000.0001) %MON dynstat_wvel_min             =  -1.5180773198129E-04
(PID.TID 0000.0001) %MON dynstat_wvel_mean            =  -2.4412404905756E-08
(PID.TID 0000.0001) %MON dynstat_wvel_sd              =   2.7955240076435E-05
(PID.TID 0000.0001) %MON dynstat_wvel_del2            =   1.5493328755286E-07
(PID.TID 0000.0001) %MON dynstat_theta_max            =   1.2000000000000E+00
(PID.TID 0000.0001) %MON dynstat_theta_min            =  -1.0000000000000E+00
(PID.TID 0000.0001) %MON dynstat_theta_mean           =   5.6547952157739E-01
(PID.TID 0000.0001) %MON dynstat_theta_sd             =   8.4906325573406E-01
(PID.TID 0000.0001) %MON dynstat_theta_del2           =   2.3053435562660E-06
(PID.TID 0000.0001) %MON dynstat_salt_max             =   3.4700000000000E+01
(PID.TID 0000.0001) %MON dynstat_salt_min             =   3.4000000000000E+01
(PID.TID 0000.0001) %MON dynstat_salt_mean            =   3.4498105106531E+01
(PID.TID 0000.0001) %MON dynstat_salt_sd              =   2.7015673373934E-01
(PID.TID 0000.0001) %MON dynstat_salt_del2            =   7.2349755582369E-07
(PID.TID 0000.0001) %MON advcfl_uvel_max              =   2.4982589716902E-04
(PID.TID 0000.0001) %MON advcfl_vvel_max              =   2.4076822952495E-04
(PID.TID 0000.0001) %MON advcfl_wvel_max              =   9.3017383322771E-04
(PID.TID 0000.0001) %MON advcfl_W_hf_max              =   9.3017383322771E-04
(PID.TID 0000.0001) %MON pe_b_mean                    =  -6.8295759935468E-01
(PID.TID 0000.0001) %MON ke_max                       =   3.8385854100126E-06
(PID.TID 0000.0001) %MON ke_mean                      =   6.2162533341082E-09
(PID.TID 0000.0001) %MON ke_vol                       =   4.6182862054290E+12
(PID.TID 0000.0001) // =======================================================
(PID.TID 0000.0001) // End MONITOR dynamic field statistics
(PID.TID 0000.0001) // =======================================================
(PID.TID 0000.0001) // =======================================================
(PID.TID 0000.0001) // Begin OBCS MONITOR field statistics
(PID.TID 0000.0001) // =======================================================
(PID.TID 0000.0001) %MON obc_N_vVel_max               =   1.3800233098301E-05
(PID.TID 0000.0001) %MON obc_N_vVel_min               =   1.3800233098301E-05
(PID.TID 0000.0001) %MON obc_N_vVel_mean              =   1.3800233098301E-05
(PID.TID 0000.0001) %MON obc_N_vVel_sd                =  -3.0760779029316E-24
(PID.TID 0000.0001) %MON obc_N_vVel_Int               =   9.1081538448784E+02
(PID.TID 0000.0001) // =======================================================
(PID.TID 0000.0001) // End OBCS MONITOR field statistics
(PID.TID 0000.0001) // =======================================================
 cg2d: Sum(rhs),rhsMax =   3.01267338034637E+00  4.53053858649813E+02
(PID.TID 0000.0001)      cg2d_init_res =   3.21117516358108E-06
(PID.TID 0000.0001)      cg2d_iters(min,last) =      -1      78
(PID.TID 0000.0001)      cg2d_last_res =   7.59267234166755E-12
(PID.TID 0000.0001) // =======================================================
(PID.TID 0000.0001) // Begin MONITOR dynamic field statistics
(PID.TID 0000.0001) // =======================================================
(PID.TID 0000.0001) %MON time_tsnumber                =                   126
(PID.TID 0000.0001) %MON time_secondsf                =   1.2600000000000E+04
(PID.TID 0000.0001) %MON dynstat_eta_max              =   5.7957340195503E+00
(PID.TID 0000.0001) %MON dynstat_eta_min              =  -1.4178354586044E+01
(PID.TID 0000.0001) %MON dynstat_eta_mean             =  -2.5275987033657E+00
(PID.TID 0000.0001) %MON dynstat_eta_sd               =   4.9421569728898E+00
(PID.TID 0000.0001) %MON dynstat_eta_del2             =   1.9058060552172E-01
(PID.TID 0000.0001) %MON dynstat_uvel_max             =   2.2112755860384E-03
(PID.TID 0000.0001) %MON dynstat_uvel_min             =  -2.5170283180405E-03
(PID.TID 0000.0001) %MON dynstat_uvel_mean            =   1.5284418729660E-07
(PID.TID 0000.0001) %MON dynstat_uvel_sd              =   6.6187286018803E-05
(PID.TID 0000.0001) %MON dynstat_uvel_del2            =   4.1205135834585E-07
(PID.TID 0000.0001) %MON dynstat_vvel_max             =   2.4201664181227E-03
(PID.TID 0000.0001) %MON dynstat_vvel_min             =  -2.0655402210448E-03
(PID.TID 0000.0001) %MON dynstat_vvel_mean            =   9.0419836810099E-06
(PID.TID 0000.0001) %MON dynstat_vvel_sd              =   8.9725496230474E-05
(PID.TID 0000.0001) %MON dynstat_vvel_del2            =   4.9418418040720E-07
(PID.TID 0000.0001) %MON dynstat_wvel_max             =   1.8362174502569E-04
(PID.TID 0000.0001) %MON dynstat_wvel_min             =  -1.4797897393265E-04
(PID.TID 0000.0001) %MON dynstat_wvel_mean            =  -2.5765857397878E-08
(PID.TID 0000.0001) %MON dynstat_wvel_sd              =   2.8024200220941E-05
(PID.TID 0000.0001) %MON dynstat_wvel_del2            =   1.5596298524872E-07
(PID.TID 0000.0001) %MON dynstat_theta_max            =   1.2000000000000E+00
(PID.TID 0000.0001) %MON dynstat_theta_min            =  -1.0000000000000E+00
(PID.TID 0000.0001) %MON dynstat_theta_mean           =   5.6547932527043E-01
(PID.TID 0000.0001) %MON dynstat_theta_sd             =   8.4906321027102E-01
(PID.TID 0000.0001) %MON dynstat_theta_del2           =   2.2915137949522E-06
(PID.TID 0000.0001) %MON dynstat_salt_max             =   3.4700000000000E+01
(PID.TID 0000.0001) %MON dynstat_salt_min             =   3.4000000000000E+01
(PID.TID 0000.0001) %MON dynstat_salt_mean            =   3.4498105028252E+01
(PID.TID 0000.0001) %MON dynstat_salt_sd              =   2.7015672108799E-01
(PID.TID 0000.0001) %MON dynstat_salt_del2            =   7.1901523966345E-07
(PID.TID 0000.0001) %MON advcfl_uvel_max              =   2.5170283180405E-04
(PID.TID 0000.0001) %MON advcfl_vvel_max              =   2.4201664181227E-04
(PID.TID 0000.0001) %MON advcfl_wvel_max              =   9.1810872512843E-04
(PID.TID 0000.0001) %MON advcfl_W_hf_max              =   9.1810872512843E-04
(PID.TID 0000.0001) %MON pe_b_mean                    =  -6.8295887677689E-01
(PID.TID 0000.0001) %MON ke_max                       =   3.8824520694192E-06
(PID.TID 0000.0001) %MON ke_mean                      =   6.2148652549388E-09
(PID.TID 0000.0001) %MON ke_vol                       =   4.6182861250617E+12
(PID.TID 0000.0001) // =======================================================
(PID.TID 0000.0001) // End MONITOR dynamic field statistics
(PID.TID 0000.0001) // =======================================================
(PID.TID 0000.0001) // =======================================================
(PID.TID 0000.0001) // Begin OBCS MONITOR field statistics
(PID.TID 0000.0001) // =======================================================
(PID.TID 0000.0001) %MON obc_N_vVel_max               =   1.0920356049896E-05
(PID.TID 0000.0001) %MON obc_N_vVel_min               =   1.0920356049896E-05
(PID.TID 0000.0001) %MON obc_N_vVel_mean              =   1.0920356049896E-05
(PID.TID 0000.0001) %MON obc_N_vVel_sd                =  -9.9778661389209E-24
(PID.TID 0000.0001) %MON obc_N_vVel_Int               =   7.2074349929313E+02
(PID.TID 0000.0001) // =======================================================
(PID.TID 0000.0001) // End OBCS MONITOR field statistics
(PID.TID 0000.0001) // =======================================================
 cg2d: Sum(rhs),rhsMax =   3.01268179280285E+00  4.53053848272752E+02
(PID.TID 0000.0001)      cg2d_init_res =   3.22610807072622E-06
(PID.TID 0000.0001)      cg2d_iters(min,last) =      -1      72
(PID.TID 0000.0001)      cg2d_last_res =   9.78574079872587E-12
(PID.TID 0000.0001) // =======================================================
(PID.TID 0000.0001) // Begin MONITOR dynamic field statistics
(PID.TID 0000.0001) // =======================================================
(PID.TID 0000.0001) %MON time_tsnumber                =                   127
(PID.TID 0000.0001) %MON time_secondsf                =   1.2700000000000E+04
(PID.TID 0000.0001) %MON dynstat_eta_max              =   5.7957260618659E+00
(PID.TID 0000.0001) %MON dynstat_eta_min              =  -1.4178358667087E+01
(PID.TID 0000.0001) %MON dynstat_eta_mean             =  -2.5276057034270E+00
(PID.TID 0000.0001) %MON dynstat_eta_sd               =   4.9421564608236E+00
(PID.TID 0000.0001) %MON dynstat_eta_del2             =   1.9058060487709E-01
(PID.TID 0000.0001) %MON dynstat_uvel_max             =   2.2228023993325E-03
(PID.TID 0000.0001) %MON dynstat_uvel_min             =  -2.5356128108012E-03
(PID.TID 0000.0001) %MON dynstat_uvel_mean            =   1.5485671667137E-07
(PID.TID 0000.0001) %MON dynstat_uvel_sd              =   6.6398578977368E-05
(PID.TID 0000.0001) %MON dynstat_uvel_del2            =   4.1274422383413E-07
(PID.TID 0000.0001) %MON dynstat_vvel_max             =   2.4342168707507E-03
(PID.TID 0000.0001) %MON dynstat_vvel_min             =  -2.0778575329885E-03
(PID.TID 0000.0001) %MON dynstat_vvel_mean            =   5.7379359693056E-06
(PID.TID 0000.0001) %MON dynstat_vvel_sd              =   8.9915125080482E-05
(PID.TID 0000.0001) %MON dynstat_vvel_del2            =   4.9491962385389E-07
(PID.TID 0000.0001) %MON dynstat_wvel_max             =   1.8470930749665E-04
(PID.TID 0000.0001) %MON dynstat_wvel_min             =  -1.6504217369826E-04
(PID.TID 0000.0001) %MON dynstat_wvel_mean            =  -2.6256372053088E-08
(PID.TID 0000.0001) %MON dynstat_wvel_sd              =   2.8049768766639E-05
(PID.TID 0000.0001) %MON dynstat_wvel_del2            =   1.5640934911153E-07
(PID.TID 0000.0001) %MON dynstat_theta_max            =   1.2000000000000E+00
(PID.TID 0000.0001) %MON dynstat_theta_min            =  -1.0000000000000E+00
(PID.TID 0000.0001) %MON dynstat_theta_mean           =   5.6547912774486E-01
(PID.TID 0000.0001) %MON dynstat_theta_sd             =   8.4906316539852E-01
(PID.TID 0000.0001) %MON dynstat_theta_del2           =   2.2780243665492E-06
(PID.TID 0000.0001) %MON dynstat_salt_max             =   3.4700000000000E+01
(PID.TID 0000.0001) %MON dynstat_salt_min             =   3.4000000000000E+01
(PID.TID 0000.0001) %MON dynstat_salt_mean            =   3.4498104949584E+01
(PID.TID 0000.0001) %MON dynstat_salt_sd              =   2.7015670862381E-01
(PID.TID 0000.0001) %MON dynstat_salt_del2            =   7.1464518909009E-07
(PID.TID 0000.0001) %MON advcfl_uvel_max              =   2.5356128108012E-04
(PID.TID 0000.0001) %MON advcfl_vvel_max              =   2.4342168707507E-04
(PID.TID 0000.0001) %MON advcfl_wvel_max              =   9.2354653748323E-04
(PID.TID 0000.0001) %MON advcfl_W_hf_max              =   9.2354653748323E-04
(PID.TID 0000.0001) %MON pe_b_mean                    =  -6.8295945352746E-01
(PID.TID 0000.0001) %MON ke_max                       =   3.9258378963866E-06
(PID.TID 0000.0001) %MON ke_mean                      =   6.2214272340710E-09
(PID.TID 0000.0001) %MON ke_vol                       =   4.6182860637020E+12
(PID.TID 0000.0001) // =======================================================
(PID.TID 0000.0001) // End MONITOR dynamic field statistics
(PID.TID 0000.0001) // =======================================================
(PID.TID 0000.0001) // =======================================================
(PID.TID 0000.0001) // Begin OBCS MONITOR field statistics
(PID.TID 0000.0001) // =======================================================
(PID.TID 0000.0001) %MON obc_N_vVel_max               =   7.9235256751402E-06
(PID.TID 0000.0001) %MON obc_N_vVel_min               =   7.9235256751401E-06
(PID.TID 0000.0001) %MON obc_N_vVel_mean              =   7.9235256751402E-06
(PID.TID 0000.0001) %MON obc_N_vVel_sd                =   5.2097853937947E-13
(PID.TID 0000.0001) %MON obc_N_vVel_Int               =   5.2295269455926E+02
(PID.TID 0000.0001) // =======================================================
(PID.TID 0000.0001) // End OBCS MONITOR field statistics
(PID.TID 0000.0001) // =======================================================
 cg2d: Sum(rhs),rhsMax =   3.01268619357384E+00  4.53053840376380E+02
(PID.TID 0000.0001)      cg2d_init_res =   3.22958585550401E-06
(PID.TID 0000.0001)      cg2d_iters(min,last) =      -1      71
(PID.TID 0000.0001)      cg2d_last_res =   8.15088589077791E-12
(PID.TID 0000.0001) // =======================================================
(PID.TID 0000.0001) // Begin MONITOR dynamic field statistics
(PID.TID 0000.0001) // =======================================================
(PID.TID 0000.0001) %MON time_tsnumber                =                   128
(PID.TID 0000.0001) %MON time_secondsf                =   1.2800000000000E+04
(PID.TID 0000.0001) %MON dynstat_eta_max              =   5.7957235586677E+00
(PID.TID 0000.0001) %MON dynstat_eta_min              =  -1.4178355731401E+01
(PID.TID 0000.0001) %MON dynstat_eta_mean             =  -2.5276093515695E+00
(PID.TID 0000.0001) %MON dynstat_eta_sd               =   4.9421548996050E+00
(PID.TID 0000.0001) %MON dynstat_eta_del2             =   1.9058060433182E-01
(PID.TID 0000.0001) %MON dynstat_uvel_max             =   2.2340779824432E-03
(PID.TID 0000.0001) %MON dynstat_uvel_min             =  -2.5540151497845E-03
(PID.TID 0000.0001) %MON dynstat_uvel_mean            =   1.5211185553465E-07
(PID.TID 0000.0001) %MON dynstat_uvel_sd              =   6.6605152970121E-05
(PID.TID 0000.0001) %MON dynstat_uvel_del2            =   4.1339805760063E-07
(PID.TID 0000.0001) %MON dynstat_vvel_max             =   2.4486675564486E-03
(PID.TID 0000.0001) %MON dynstat_vvel_min             =  -2.0898124331179E-03
(PID.TID 0000.0001) %MON dynstat_vvel_mean            =   2.5010339251484E-06
(PID.TID 0000.0001) %MON dynstat_vvel_sd              =   9.0070717858658E-05
(PID.TID 0000.0001) %MON dynstat_vvel_del2            =   4.9510160802550E-07
(PID.TID 0000.0001) %MON dynstat_wvel_max             =   1.8577724129710E-04
(PID.TID 0000.0001) %MON dynstat_wvel_min             =  -1.7898925175976E-04
(PID.TID 0000.0001) %MON dynstat_wvel_mean            =  -2.5931589890641E-08
(PID.TID 0000.0001) %MON dynstat_wvel_sd              =   2.8021068725447E-05
(PID.TID 0000.0001) %MON dynstat_wvel_del2            =   1.5618198703692E-07
(PID.TID 0000.0001) %MON dynstat_theta_max            =   1.2000000000000E+00
(PID.TID 0000.0001) %MON dynstat_theta_min            =  -1.0000000000000E+00
(PID.TID 0000.0001) %MON dynstat_theta_mean           =   5.6547892895984E-01
(PID.TID 0000.0001) %MON dynstat_theta_sd             =   8.4906312112969E-01
(PID.TID 0000.0001) %MON dynstat_theta_del2           =   2.2649168563034E-06
(PID.TID 0000.0001) %MON dynstat_salt_max             =   3.4700000000000E+01
(PID.TID 0000.0001) %MON dynstat_salt_min             =   3.4000000000000E+01
(PID.TID 0000.0001) %MON dynstat_salt_mean            =   3.4498104870514E+01
(PID.TID 0000.0001) %MON dynstat_salt_sd              =   2.7015669635079E-01
(PID.TID 0000.0001) %MON dynstat_salt_del2            =   7.1040091954480E-07
(PID.TID 0000.0001) %MON advcfl_uvel_max              =   2.5540151497845E-04
(PID.TID 0000.0001) %MON advcfl_vvel_max              =   2.4486675564486E-04
(PID.TID 0000.0001) %MON advcfl_wvel_max              =   9.2888620648548E-04
(PID.TID 0000.0001) %MON advcfl_W_hf_max              =   9.2888620648548E-04
(PID.TID 0000.0001) %MON pe_b_mean                    =  -6.8295934864433E-01
(PID.TID 0000.0001) %MON ke_max                       =   3.9687788944777E-06
(PID.TID 0000.0001) %MON ke_mean                      =   6.2357122839226E-09
(PID.TID 0000.0001) %MON ke_vol                       =   4.6182860221216E+12
(PID.TID 0000.0001) // =======================================================
(PID.TID 0000.0001) // End MONITOR dynamic field statistics
(PID.TID 0000.0001) // =======================================================
(PID.TID 0000.0001) // =======================================================
(PID.TID 0000.0001) // Begin OBCS MONITOR field statistics
(PID.TID 0000.0001) // =======================================================
(PID.TID 0000.0001) %MON obc_N_vVel_max               =   4.9068442821243E-06
(PID.TID 0000.0001) %MON obc_N_vVel_min               =   4.9068442821243E-06
(PID.TID 0000.0001) %MON obc_N_vVel_mean              =   4.9068442821243E-06
(PID.TID 0000.0001) %MON obc_N_vVel_sd                =  -1.2924697071141E-26
(PID.TID 0000.0001) %MON obc_N_vVel_Int               =   3.2385172262020E+02
(PID.TID 0000.0001) // =======================================================
(PID.TID 0000.0001) // End OBCS MONITOR field statistics
(PID.TID 0000.0001) // =======================================================
 cg2d: Sum(rhs),rhsMax =   3.01268667721872E+00  4.53053834849960E+02
(PID.TID 0000.0001)      cg2d_init_res =   3.21967221467674E-06
(PID.TID 0000.0001)      cg2d_iters(min,last) =      -1      77
(PID.TID 0000.0001)      cg2d_last_res =   9.84540381024629E-12
(PID.TID 0000.0001) // =======================================================
(PID.TID 0000.0001) // Begin MONITOR dynamic field statistics
(PID.TID 0000.0001) // =======================================================
(PID.TID 0000.0001) %MON time_tsnumber                =                   129
(PID.TID 0000.0001) %MON time_secondsf                =   1.2900000000000E+04
(PID.TID 0000.0001) %MON dynstat_eta_max              =   5.7957262579809E+00
(PID.TID 0000.0001) %MON dynstat_eta_min              =  -1.4178346234575E+01
(PID.TID 0000.0001) %MON dynstat_eta_mean             =  -2.5276097265099E+00
(PID.TID 0000.0001) %MON dynstat_eta_sd               =   4.9421523925749E+00
(PID.TID 0000.0001) %MON dynstat_eta_del2             =   1.9058060388180E-01
(PID.TID 0000.0001) %MON dynstat_uvel_max             =   2.2451089189754E-03
(PID.TID 0000.0001) %MON dynstat_uvel_min             =  -2.5722375899111E-03
(PID.TID 0000.0001) %MON dynstat_uvel_mean            =   1.4500819799908E-07
(PID.TID 0000.0001) %MON dynstat_uvel_sd              =   6.6807166123129E-05
(PID.TID 0000.0001) %MON dynstat_uvel_del2            =   4.1401378274170E-07
(PID.TID 0000.0001) %MON dynstat_vvel_max             =   2.4630366913581E-03
(PID.TID 0000.0001) %MON dynstat_vvel_min             =  -2.1013439832327E-03
(PID.TID 0000.0001) %MON dynstat_vvel_mean            =  -5.7776601173012E-07
(PID.TID 0000.0001) %MON dynstat_vvel_sd              =   9.0188279422345E-05
(PID.TID 0000.0001) %MON dynstat_vvel_del2            =   4.9475482918366E-07
(PID.TID 0000.0001) %MON dynstat_wvel_max             =   1.8682439637953E-04
(PID.TID 0000.0001) %MON dynstat_wvel_min             =  -1.8895376273962E-04
(PID.TID 0000.0001) %MON dynstat_wvel_mean            =  -2.4859806219693E-08
(PID.TID 0000.0001) %MON dynstat_wvel_sd              =   2.7934648308683E-05
(PID.TID 0000.0001) %MON dynstat_wvel_del2            =   1.5527651971442E-07
(PID.TID 0000.0001) %MON dynstat_theta_max            =   1.2000000000000E+00
(PID.TID 0000.0001) %MON dynstat_theta_min            =  -1.0000000000000E+00
(PID.TID 0000.0001) %MON dynstat_theta_mean           =   5.6547872891484E-01
(PID.TID 0000.0001) %MON dynstat_theta_sd             =   8.4906307743736E-01
(PID.TID 0000.0001) %MON dynstat_theta_del2           =   2.2521933704148E-06
(PID.TID 0000.0001) %MON dynstat_salt_max             =   3.4700000000000E+01
(PID.TID 0000.0001) %MON dynstat_salt_min             =   3.4000000000000E+01
(PID.TID 0000.0001) %MON dynstat_salt_mean            =   3.4498104791044E+01
(PID.TID 0000.0001) %MON dynstat_salt_sd              =   2.7015668426017E-01
(PID.TID 0000.0001) %MON dynstat_salt_del2            =   7.0628323459909E-07
(PID.TID 0000.0001) %MON advcfl_uvel_max              =   2.5722375899111E-04
(PID.TID 0000.0001) %MON advcfl_vvel_max              =   2.4630366913581E-04
(PID.TID 0000.0001) %MON advcfl_wvel_max              =   9.4476881369808E-04
(PID.TID 0000.0001) %MON advcfl_W_hf_max              =   9.4476881369808E-04
(PID.TID 0000.0001) %MON pe_b_mean                    =  -6.8295859996475E-01
(PID.TID 0000.0001) %MON ke_max                       =   4.0113074290219E-06
(PID.TID 0000.0001) %MON ke_mean                      =   6.2566405761664E-09
(PID.TID 0000.0001) %MON ke_vol                       =   4.6182860004517E+12
(PID.TID 0000.0001) // =======================================================
(PID.TID 0000.0001) // End MONITOR dynamic field statistics
(PID.TID 0000.0001) // =======================================================
(PID.TID 0000.0001) // =======================================================
(PID.TID 0000.0001) // Begin OBCS MONITOR field statistics
(PID.TID 0000.0001) // =======================================================
(PID.TID 0000.0001) %MON obc_N_vVel_max               =   1.9610070118874E-06
(PID.TID 0000.0001) %MON obc_N_vVel_min               =   1.9610070118873E-06
(PID.TID 0000.0001) %MON obc_N_vVel_mean              =   1.9610070118873E-06
(PID.TID 0000.0001) %MON obc_N_vVel_sd                =   4.8483804304260E-13
(PID.TID 0000.0001) %MON obc_N_vVel_Int               =   1.2942646278456E+02
(PID.TID 0000.0001) // =======================================================
(PID.TID 0000.0001) // End OBCS MONITOR field statistics
(PID.TID 0000.0001) // =======================================================
 cg2d: Sum(rhs),rhsMax =   3.01268344746883E+00  4.53053831508877E+02
(PID.TID 0000.0001)      cg2d_init_res =   3.19605377466134E-06
(PID.TID 0000.0001)      cg2d_iters(min,last) =      -1      78
(PID.TID 0000.0001)      cg2d_last_res =   7.32012397390948E-12
(PID.TID 0000.0001) // =======================================================
(PID.TID 0000.0001) // Begin MONITOR dynamic field statistics
(PID.TID 0000.0001) // =======================================================
(PID.TID 0000.0001) %MON time_tsnumber                =                   130
(PID.TID 0000.0001) %MON time_secondsf                =   1.3000000000000E+04
(PID.TID 0000.0001) %MON dynstat_eta_max              =   5.7957337709998E+00
(PID.TID 0000.0001) %MON dynstat_eta_min              =  -1.4178330791190E+01
(PID.TID 0000.0001) %MON dynstat_eta_mean             =  -2.5276069981465E+00
(PID.TID 0000.0001) %MON dynstat_eta_sd               =   4.9421490636943E+00
(PID.TID 0000.0001) %MON dynstat_eta_del2             =   1.9058060351967E-01
(PID.TID 0000.0001) %MON dynstat_uvel_max             =   2.2559015027905E-03
(PID.TID 0000.0001) %MON dynstat_uvel_min             =  -2.5902819459638E-03
(PID.TID 0000.0001) %MON dynstat_uvel_mean            =   1.3405297615419E-07
(PID.TID 0000.0001) %MON dynstat_uvel_sd              =   6.7004786583545E-05
(PID.TID 0000.0001) %MON dynstat_uvel_del2            =   4.1459221888168E-07
(PID.TID 0000.0001) %MON dynstat_vvel_max             =   2.4773612903957E-03
(PID.TID 0000.0001) %MON dynstat_vvel_min             =  -2.1124002935231E-03
(PID.TID 0000.0001) %MON dynstat_vvel_mean            =  -3.4187420610425E-06
(PID.TID 0000.0001) %MON dynstat_vvel_sd              =   9.0268767642350E-05
(PID.TID 0000.0001) %MON dynstat_vvel_del2            =   4.9396494293757E-07
(PID.TID 0000.0001) %MON dynstat_wvel_max             =   1.8784978068053E-04
(PID.TID 0000.0001) %MON dynstat_wvel_min             =  -1.9835040637955E-04
(PID.TID 0000.0001) %MON dynstat_wvel_mean            =  -2.3126497489153E-08
(PID.TID 0000.0001) %MON dynstat_wvel_sd              =   2.7794533797809E-05
(PID.TID 0000.0001) %MON dynstat_wvel_del2            =   1.5377079696409E-07
(PID.TID 0000.0001) %MON dynstat_theta_max            =   1.2000000000000E+00
(PID.TID 0000.0001) %MON dynstat_theta_min            =  -1.0000000000000E+00
(PID.TID 0000.0001) %MON dynstat_theta_mean           =   5.6547852764646E-01
(PID.TID 0000.0001) %MON dynstat_theta_sd             =   8.4906303422995E-01
(PID.TID 0000.0001) %MON dynstat_theta_del2           =   2.2398171223089E-06
(PID.TID 0000.0001) %MON dynstat_salt_max             =   3.4700000000000E+01
(PID.TID 0000.0001) %MON dynstat_salt_min             =   3.4000000000000E+01
(PID.TID 0000.0001) %MON dynstat_salt_mean            =   3.4498104711183E+01
(PID.TID 0000.0001) %MON dynstat_salt_sd              =   2.7015667232286E-01
(PID.TID 0000.0001) %MON dynstat_salt_del2            =   7.0228035923024E-07
(PID.TID 0000.0001) %MON advcfl_uvel_max              =   2.5902819459638E-04
(PID.TID 0000.0001) %MON advcfl_vvel_max              =   2.4773612903957E-04
(PID.TID 0000.0001) %MON advcfl_wvel_max              =   9.9175203189773E-04
(PID.TID 0000.0001) %MON advcfl_W_hf_max              =   9.9175203189773E-04
(PID.TID 0000.0001) %MON pe_b_mean                    =  -6.8295726165082E-01
(PID.TID 0000.0001) %MON ke_max                       =   4.0534512799407E-06
(PID.TID 0000.0001) %MON ke_mean                      =   6.2825626842176E-09
(PID.TID 0000.0001) %MON ke_vol                       =   4.6182859982245E+12
(PID.TID 0000.0001) // =======================================================
(PID.TID 0000.0001) // End MONITOR dynamic field statistics
(PID.TID 0000.0001) // =======================================================
(PID.TID 0000.0001) // =======================================================
(PID.TID 0000.0001) // Begin OBCS MONITOR field statistics
(PID.TID 0000.0001) // =======================================================
(PID.TID 0000.0001) %MON obc_N_vVel_max               =  -8.3192244894638E-07
(PID.TID 0000.0001) %MON obc_N_vVel_min               =  -8.3192244894639E-07
(PID.TID 0000.0001) %MON obc_N_vVel_mean              =  -8.3192244894638E-07
(PID.TID 0000.0001) %MON obc_N_vVel_sd                =   2.1434378722060E-13
(PID.TID 0000.0001) %MON obc_N_vVel_Int               =  -5.4906881630461E+01
(PID.TID 0000.0001) // =======================================================
(PID.TID 0000.0001) // End OBCS MONITOR field statistics
(PID.TID 0000.0001) // =======================================================
 cg2d: Sum(rhs),rhsMax =   3.01267680335342E+00  4.53053830102234E+02
(PID.TID 0000.0001)      cg2d_init_res =   3.16057343337350E-06
(PID.TID 0000.0001)      cg2d_iters(min,last) =      -1      78
(PID.TID 0000.0001)      cg2d_last_res =   7.58011835846187E-12
(PID.TID 0000.0001) // =======================================================
(PID.TID 0000.0001) // Begin MONITOR dynamic field statistics
(PID.TID 0000.0001) // =======================================================
(PID.TID 0000.0001) %MON time_tsnumber                =                   131
(PID.TID 0000.0001) %MON time_secondsf                =   1.3100000000000E+04
(PID.TID 0000.0001) %MON dynstat_eta_max              =   5.7957455964194E+00
(PID.TID 0000.0001) %MON dynstat_eta_min              =  -1.4178310147112E+01
(PID.TID 0000.0001) %MON dynstat_eta_mean             =  -2.5276014159619E+00
(PID.TID 0000.0001) %MON dynstat_eta_sd               =   4.9421450522760E+00
(PID.TID 0000.0001) %MON dynstat_eta_del2             =   1.9058060323680E-01
(PID.TID 0000.0001) %MON dynstat_uvel_max             =   2.2664616243251E-03
(PID.TID 0000.0001) %MON dynstat_uvel_min             =  -2.6081495601478E-03
(PID.TID 0000.0001) %MON dynstat_uvel_mean            =   1.1984546082941E-07
(PID.TID 0000.0001) %MON dynstat_uvel_sd              =   6.7198189157581E-05
(PID.TID 0000.0001) %MON dynstat_uvel_del2            =   4.1513408860833E-07
(PID.TID 0000.0001) %MON dynstat_vvel_max             =   2.4916714682988E-03
(PID.TID 0000.0001) %MON dynstat_vvel_min             =  -2.1229396883378E-03
(PID.TID 0000.0001) %MON dynstat_vvel_mean            =  -5.9549537327882E-06
(PID.TID 0000.0001) %MON dynstat_vvel_sd              =   9.0317735225932E-05
(PID.TID 0000.0001) %MON dynstat_vvel_del2            =   4.9286577914103E-07
(PID.TID 0000.0001) %MON dynstat_wvel_max             =   1.8885260929677E-04
(PID.TID 0000.0001) %MON dynstat_wvel_min             =  -2.0556471733059E-04
(PID.TID 0000.0001) %MON dynstat_wvel_mean            =  -2.0830584431351E-08
(PID.TID 0000.0001) %MON dynstat_wvel_sd              =   2.7611474498084E-05
(PID.TID 0000.0001) %MON dynstat_wvel_del2            =   1.5181439500051E-07
(PID.TID 0000.0001) %MON dynstat_theta_max            =   1.2000000000000E+00
(PID.TID 0000.0001) %MON dynstat_theta_min            =  -1.0000000000000E+00
(PID.TID 0000.0001) %MON dynstat_theta_mean           =   5.6547832522459E-01
(PID.TID 0000.0001) %MON dynstat_theta_sd             =   8.4906299146984E-01
(PID.TID 0000.0001) %MON dynstat_theta_del2           =   2.2277178963235E-06
(PID.TID 0000.0001) %MON dynstat_salt_max             =   3.4700000000000E+01
(PID.TID 0000.0001) %MON dynstat_salt_min             =   3.4000000000000E+01
(PID.TID 0000.0001) %MON dynstat_salt_mean            =   3.4498104630956E+01
(PID.TID 0000.0001) %MON dynstat_salt_sd              =   2.7015666052686E-01
(PID.TID 0000.0001) %MON dynstat_salt_del2            =   6.9836979945156E-07
(PID.TID 0000.0001) %MON advcfl_uvel_max              =   2.6081495601478E-04
(PID.TID 0000.0001) %MON advcfl_vvel_max              =   2.4916714682988E-04
(PID.TID 0000.0001) %MON advcfl_wvel_max              =   1.0278235866529E-03
(PID.TID 0000.0001) %MON advcfl_W_hf_max              =   1.0278235866529E-03
(PID.TID 0000.0001) %MON pe_b_mean                    =  -6.8295540140970E-01
(PID.TID 0000.0001) %MON ke_max                       =   4.0952329299957E-06
(PID.TID 0000.0001) %MON ke_mean                      =   6.3115634671763E-09
(PID.TID 0000.0001) %MON ke_vol                       =   4.6182860144310E+12
(PID.TID 0000.0001) // =======================================================
(PID.TID 0000.0001) // End MONITOR dynamic field statistics
(PID.TID 0000.0001) // =======================================================
(PID.TID 0000.0001) // =======================================================
(PID.TID 0000.0001) // Begin OBCS MONITOR field statistics
(PID.TID 0000.0001) // =======================================================
(PID.TID 0000.0001) %MON obc_N_vVel_max               =  -3.4003172587633E-06
(PID.TID 0000.0001) %MON obc_N_vVel_min               =  -3.4003172587633E-06
(PID.TID 0000.0001) %MON obc_N_vVel_mean              =  -3.4003172587633E-06
(PID.TID 0000.0001) %MON obc_N_vVel_sd                =   5.0523535817977E-13
(PID.TID 0000.0001) %MON obc_N_vVel_Int               =  -2.2442093907838E+02
(PID.TID 0000.0001) // =======================================================
(PID.TID 0000.0001) // End OBCS MONITOR field statistics
(PID.TID 0000.0001) // =======================================================
 cg2d: Sum(rhs),rhsMax =   3.01266712345749E+00  4.53053830326207E+02
(PID.TID 0000.0001)      cg2d_init_res =   3.11607346253778E-06
(PID.TID 0000.0001)      cg2d_iters(min,last) =      -1      78
(PID.TID 0000.0001)      cg2d_last_res =   7.15761135093954E-12
(PID.TID 0000.0001) // =======================================================
(PID.TID 0000.0001) // Begin MONITOR dynamic field statistics
(PID.TID 0000.0001) // =======================================================
(PID.TID 0000.0001) %MON time_tsnumber                =                   132
(PID.TID 0000.0001) %MON time_secondsf                =   1.3200000000000E+04
(PID.TID 0000.0001) %MON dynstat_eta_max              =   5.7957611402088E+00
(PID.TID 0000.0001) %MON dynstat_eta_min              =  -1.4178285147941E+01
(PID.TID 0000.0001) %MON dynstat_eta_mean             =  -2.5275932958894E+00
(PID.TID 0000.0001) %MON dynstat_eta_sd               =   4.9421405078349E+00
(PID.TID 0000.0001) %MON dynstat_eta_del2             =   1.9058060302354E-01
(PID.TID 0000.0001) %MON dynstat_uvel_max             =   2.2767946861730E-03
(PID.TID 0000.0001) %MON dynstat_uvel_min             =  -2.6258413553539E-03
(PID.TID 0000.0001) %MON dynstat_uvel_mean            =   1.0304971495122E-07
(PID.TID 0000.0001) %MON dynstat_uvel_sd              =   6.7387552266463E-05
(PID.TID 0000.0001) %MON dynstat_uvel_del2            =   4.1564002257096E-07
(PID.TID 0000.0001) %MON dynstat_vvel_max             =   2.5059902927476E-03
(PID.TID 0000.0001) %MON dynstat_vvel_min             =  -2.1329311370089E-03
(PID.TID 0000.0001) %MON dynstat_vvel_mean            =  -8.1333053437666E-06
(PID.TID 0000.0001) %MON dynstat_vvel_sd              =   9.0344392799427E-05
(PID.TID 0000.0001) %MON dynstat_vvel_del2            =   4.9162115022928E-07
(PID.TID 0000.0001) %MON dynstat_wvel_max             =   1.8983230698487E-04
(PID.TID 0000.0001) %MON dynstat_wvel_min             =  -2.0828945290810E-04
(PID.TID 0000.0001) %MON dynstat_wvel_mean            =  -1.8080361396491E-08
(PID.TID 0000.0001) %MON dynstat_wvel_sd              =   2.7401466903269E-05
(PID.TID 0000.0001) %MON dynstat_wvel_del2            =   1.4961154380722E-07
(PID.TID 0000.0001) %MON dynstat_theta_max            =   1.2000000000000E+00
(PID.TID 0000.0001) %MON dynstat_theta_min            =  -1.0000000000000E+00
(PID.TID 0000.0001) %MON dynstat_theta_mean           =   5.6547812174784E-01
(PID.TID 0000.0001) %MON dynstat_theta_sd             =   8.4906294913702E-01
(PID.TID 0000.0001) %MON dynstat_theta_del2           =   2.2158060647181E-06
(PID.TID 0000.0001) %MON dynstat_salt_max             =   3.4700000000000E+01
(PID.TID 0000.0001) %MON dynstat_salt_min             =   3.4000000000000E+01
(PID.TID 0000.0001) %MON dynstat_salt_mean            =   3.4498104550392E+01
(PID.TID 0000.0001) %MON dynstat_salt_sd              =   2.7015664886582E-01
(PID.TID 0000.0001) %MON dynstat_salt_del2            =   6.9452265756557E-07
(PID.TID 0000.0001) %MON advcfl_uvel_max              =   2.6258413553539E-04
(PID.TID 0000.0001) %MON advcfl_vvel_max              =   2.5059902927476E-04
(PID.TID 0000.0001) %MON advcfl_wvel_max              =   1.0414472645405E-03
(PID.TID 0000.0001) %MON advcfl_W_hf_max              =   1.0414472645405E-03
(PID.TID 0000.0001) %MON pe_b_mean                    =  -6.8295309751529E-01
(PID.TID 0000.0001) %MON ke_max                       =   4.1366690692585E-06
(PID.TID 0000.0001) %MON ke_mean                      =   6.3417427548133E-09
(PID.TID 0000.0001) %MON ke_vol                       =   4.6182860475892E+12
(PID.TID 0000.0001) // =======================================================
(PID.TID 0000.0001) // End MONITOR dynamic field statistics
(PID.TID 0000.0001) // =======================================================
(PID.TID 0000.0001) // =======================================================
(PID.TID 0000.0001) // Begin OBCS MONITOR field statistics
(PID.TID 0000.0001) // =======================================================
(PID.TID 0000.0001) %MON obc_N_vVel_max               =  -5.6843697782313E-06
(PID.TID 0000.0001) %MON obc_N_vVel_min               =  -5.6843697782315E-06
(PID.TID 0000.0001) %MON obc_N_vVel_mean              =  -5.6843697782313E-06
(PID.TID 0000.0001) %MON obc_N_vVel_sd                =   8.5454396289452E-13
(PID.TID 0000.0001) %MON obc_N_vVel_Int               =  -3.7516840536327E+02
(PID.TID 0000.0001) // =======================================================
(PID.TID 0000.0001) // End OBCS MONITOR field statistics
(PID.TID 0000.0001) // =======================================================
 cg2d: Sum(rhs),rhsMax =   3.01265484900557E+00  4.53053831836785E+02
(PID.TID 0000.0001)      cg2d_init_res =   3.06691850770994E-06
(PID.TID 0000.0001)      cg2d_iters(min,last) =      -1      73
(PID.TID 0000.0001)      cg2d_last_res =   9.38268664783930E-12
(PID.TID 0000.0001) // =======================================================
(PID.TID 0000.0001) // Begin MONITOR dynamic field statistics
(PID.TID 0000.0001) // =======================================================
(PID.TID 0000.0001) %MON time_tsnumber                =                   133
(PID.TID 0000.0001) %MON time_secondsf                =   1.3300000000000E+04
(PID.TID 0000.0001) %MON dynstat_eta_max              =   5.7957797417682E+00
(PID.TID 0000.0001) %MON dynstat_eta_min              =  -1.4178256706184E+01
(PID.TID 0000.0001) %MON dynstat_eta_mean             =  -2.5275830061919E+00
(PID.TID 0000.0001) %MON dynstat_eta_sd               =   4.9421355848751E+00
(PID.TID 0000.0001) %MON dynstat_eta_del2             =   1.9058060286996E-01
(PID.TID 0000.0001) %MON dynstat_uvel_max             =   2.2869056086918E-03
(PID.TID 0000.0001) %MON dynstat_uvel_min             =  -2.6433578338114E-03
(PID.TID 0000.0001) %MON dynstat_uvel_mean            =   8.4362956710902E-08
(PID.TID 0000.0001) %MON dynstat_uvel_sd              =   6.7573055593144E-05
(PID.TID 0000.0001) %MON dynstat_uvel_del2            =   4.1611057474951E-07
(PID.TID 0000.0001) %MON dynstat_vvel_max             =   2.5203336722432E-03
(PID.TID 0000.0001) %MON dynstat_vvel_min             =  -2.1423545006574E-03
(PID.TID 0000.0001) %MON dynstat_vvel_mean            =  -9.9151255607592E-06
(PID.TID 0000.0001) %MON dynstat_vvel_sd              =   9.0360241846867E-05
(PID.TID 0000.0001) %MON dynstat_vvel_del2            =   4.9040337158541E-07
(PID.TID 0000.0001) %MON dynstat_wvel_max             =   1.9078850226027E-04
(PID.TID 0000.0001) %MON dynstat_wvel_min             =  -2.0648252642933E-04
(PID.TID 0000.0001) %MON dynstat_wvel_mean            =  -1.4989974311748E-08
(PID.TID 0000.0001) %MON dynstat_wvel_sd              =   2.7183680658534E-05
(PID.TID 0000.0001) %MON dynstat_wvel_del2            =   1.4739753858737E-07
(PID.TID 0000.0001) %MON dynstat_theta_max            =   1.2000000000000E+00
(PID.TID 0000.0001) %MON dynstat_theta_min            =  -1.0000000000000E+00
(PID.TID 0000.0001) %MON dynstat_theta_mean           =   5.6547791733892E-01
(PID.TID 0000.0001) %MON dynstat_theta_sd             =   8.4906290721036E-01
(PID.TID 0000.0001) %MON dynstat_theta_del2           =   2.2039840702056E-06
(PID.TID 0000.0001) %MON dynstat_salt_max             =   3.4700000000000E+01
(PID.TID 0000.0001) %MON dynstat_salt_min             =   3.4000000000000E+01
(PID.TID 0000.0001) %MON dynstat_salt_mean            =   3.4498104469530E+01
(PID.TID 0000.0001) %MON dynstat_salt_sd              =   2.7015663733315E-01
(PID.TID 0000.0001) %MON dynstat_salt_del2            =   6.9070749655053E-07
(PID.TID 0000.0001) %MON advcfl_uvel_max              =   2.6433578338114E-04
(PID.TID 0000.0001) %MON advcfl_vvel_max              =   2.5203336722432E-04
(PID.TID 0000.0001) %MON advcfl_wvel_max              =   1.0324126321466E-03
(PID.TID 0000.0001) %MON advcfl_W_hf_max              =   1.0324126321466E-03
(PID.TID 0000.0001) %MON pe_b_mean                    =  -6.8295043572783E-01
(PID.TID 0000.0001) %MON ke_max                       =   4.1777703443472E-06
(PID.TID 0000.0001) %MON ke_mean                      =   6.3714415629194E-09
(PID.TID 0000.0001) %MON ke_vol                       =   4.6182860958224E+12
(PID.TID 0000.0001) // =======================================================
(PID.TID 0000.0001) // End MONITOR dynamic field statistics
(PID.TID 0000.0001) // =======================================================
(PID.TID 0000.0001) // =======================================================
(PID.TID 0000.0001) // Begin OBCS MONITOR field statistics
(PID.TID 0000.0001) // =======================================================
(PID.TID 0000.0001) %MON obc_N_vVel_max               =  -7.6369851279608E-06
(PID.TID 0000.0001) %MON obc_N_vVel_min               =  -7.6369851279608E-06
(PID.TID 0000.0001) %MON obc_N_vVel_mean              =  -7.6369851279608E-06
(PID.TID 0000.0001) %MON obc_N_vVel_sd                =   8.6581316121100E-13
(PID.TID 0000.0001) %MON obc_N_vVel_Int               =  -5.0404101844541E+02
(PID.TID 0000.0001) // =======================================================
(PID.TID 0000.0001) // End OBCS MONITOR field statistics
(PID.TID 0000.0001) // =======================================================
 cg2d: Sum(rhs),rhsMax =   3.01264046631057E+00  4.53053834255796E+02
(PID.TID 0000.0001)      cg2d_init_res =   3.01810403094560E-06
(PID.TID 0000.0001)      cg2d_iters(min,last) =      -1      73
(PID.TID 0000.0001)      cg2d_last_res =   7.75738324896751E-12
(PID.TID 0000.0001) // =======================================================
(PID.TID 0000.0001) // Begin MONITOR dynamic field statistics
(PID.TID 0000.0001) // =======================================================
(PID.TID 0000.0001) %MON time_tsnumber                =                   134
(PID.TID 0000.0001) %MON time_secondsf                =   1.3400000000000E+04
(PID.TID 0000.0001) %MON dynstat_eta_max              =   5.7958006955003E+00
(PID.TID 0000.0001) %MON dynstat_eta_min              =  -1.4178225770811E+01
(PID.TID 0000.0001) %MON dynstat_eta_mean             =  -2.5275709527707E+00
(PID.TID 0000.0001) %MON dynstat_eta_sd               =   4.9421304379546E+00
(PID.TID 0000.0001) %MON dynstat_eta_del2             =   1.9058060276334E-01
(PID.TID 0000.0001) %MON dynstat_uvel_max             =   2.2967986108480E-03
(PID.TID 0000.0001) %MON dynstat_uvel_min             =  -2.6606991161711E-03
(PID.TID 0000.0001) %MON dynstat_uvel_mean            =   6.4504650321749E-08
(PID.TID 0000.0001) %MON dynstat_uvel_sd              =   6.7754878451945E-05
(PID.TID 0000.0001) %MON dynstat_uvel_del2            =   4.1654623844979E-07
(PID.TID 0000.0001) %MON dynstat_vvel_max             =   2.5347103188311E-03
(PID.TID 0000.0001) %MON dynstat_vvel_min             =  -2.1512003565611E-03
(PID.TID 0000.0001) %MON dynstat_vvel_mean            =  -1.1276271976168E-05
(PID.TID 0000.0001) %MON dynstat_vvel_sd              =   9.0377464228985E-05
(PID.TID 0000.0001) %MON dynstat_vvel_del2            =   4.8937103440977E-07
(PID.TID 0000.0001) %MON dynstat_wvel_max             =   1.9172106444593E-04
(PID.TID 0000.0001) %MON dynstat_wvel_min             =  -2.0020843846496E-04
(PID.TID 0000.0001) %MON dynstat_wvel_mean            =  -1.1675353354824E-08
(PID.TID 0000.0001) %MON dynstat_wvel_sd              =   2.6977980875381E-05
(PID.TID 0000.0001) %MON dynstat_wvel_del2            =   1.4540949037641E-07
(PID.TID 0000.0001) %MON dynstat_theta_max            =   1.2000000000000E+00
(PID.TID 0000.0001) %MON dynstat_theta_min            =  -1.0000000000000E+00
(PID.TID 0000.0001) %MON dynstat_theta_mean           =   5.6547771213919E-01
(PID.TID 0000.0001) %MON dynstat_theta_sd             =   8.4906286564158E-01
(PID.TID 0000.0001) %MON dynstat_theta_del2           =   2.1921603266334E-06
(PID.TID 0000.0001) %MON dynstat_salt_max             =   3.4700000000000E+01
(PID.TID 0000.0001) %MON dynstat_salt_min             =   3.4000000000000E+01
(PID.TID 0000.0001) %MON dynstat_salt_mean            =   3.4498104388417E+01
(PID.TID 0000.0001) %MON dynstat_salt_sd              =   2.7015662591374E-01
(PID.TID 0000.0001) %MON dynstat_salt_del2            =   6.8689477818330E-07
(PID.TID 0000.0001) %MON advcfl_uvel_max              =   2.6606991161711E-04
(PID.TID 0000.0001) %MON advcfl_vvel_max              =   2.5347103188311E-04
(PID.TID 0000.0001) %MON advcfl_wvel_max              =   1.0010421923248E-03
(PID.TID 0000.0001) %MON advcfl_W_hf_max              =   1.0010421923248E-03
(PID.TID 0000.0001) %MON pe_b_mean                    =  -6.8294750621355E-01
(PID.TID 0000.0001) %MON ke_max                       =   4.2185411622241E-06
(PID.TID 0000.0001) %MON ke_mean                      =   6.3993942140593E-09
(PID.TID 0000.0001) %MON ke_vol                       =   4.6182861569432E+12
(PID.TID 0000.0001) // =======================================================
(PID.TID 0000.0001) // End MONITOR dynamic field statistics
(PID.TID 0000.0001) // =======================================================
(PID.TID 0000.0001) // =======================================================
(PID.TID 0000.0001) // Begin OBCS MONITOR field statistics
(PID.TID 0000.0001) // =======================================================
(PID.TID 0000.0001) %MON obc_N_vVel_max               =  -9.2242897466776E-06
(PID.TID 0000.0001) %MON obc_N_vVel_min               =  -9.2242897466779E-06
(PID.TID 0000.0001) %MON obc_N_vVel_mean              =  -9.2242897466776E-06
(PID.TID 0000.0001) %MON obc_N_vVel_sd                =   2.8444437710270E-12
(PID.TID 0000.0001) %MON obc_N_vVel_Int               =  -6.0880312328072E+02
(PID.TID 0000.0001) // =======================================================
(PID.TID 0000.0001) // End OBCS MONITOR field statistics
(PID.TID 0000.0001) // =======================================================
 cg2d: Sum(rhs),rhsMax =   3.01262448911464E+00  4.53053837184834E+02
(PID.TID 0000.0001)      cg2d_init_res =   2.97468194826681E-06
(PID.TID 0000.0001)      cg2d_iters(min,last) =      -1      72
(PID.TID 0000.0001)      cg2d_last_res =   9.51576426711481E-12
(PID.TID 0000.0001) // =======================================================
(PID.TID 0000.0001) // Begin MONITOR dynamic field statistics
(PID.TID 0000.0001) // =======================================================
(PID.TID 0000.0001) %MON time_tsnumber                =                   135
(PID.TID 0000.0001) %MON time_secondsf                =   1.3500000000000E+04
(PID.TID 0000.0001) %MON dynstat_eta_max              =   5.7958232785950E+00
(PID.TID 0000.0001) %MON dynstat_eta_min              =  -1.4178193293996E+01
(PID.TID 0000.0001) %MON dynstat_eta_mean             =  -2.5275575644266E+00
(PID.TID 0000.0001) %MON dynstat_eta_sd               =   4.9421252171100E+00
(PID.TID 0000.0001) %MON dynstat_eta_del2             =   1.9058060269248E-01
(PID.TID 0000.0001) %MON dynstat_uvel_max             =   2.3064771765284E-03
(PID.TID 0000.0001) %MON dynstat_uvel_min             =  -2.6778650284240E-03
(PID.TID 0000.0001) %MON dynstat_uvel_mean            =   4.4171348686346E-08
(PID.TID 0000.0001) %MON dynstat_uvel_sd              =   6.7933196650967E-05
(PID.TID 0000.0001) %MON dynstat_uvel_del2            =   4.1694746244708E-07
(PID.TID 0000.0001) %MON dynstat_vvel_max             =   2.5491220486984E-03
(PID.TID 0000.0001) %MON dynstat_vvel_min             =  -2.1594696093192E-03
(PID.TID 0000.0001) %MON dynstat_vvel_mean            =  -1.2206812895861E-05
(PID.TID 0000.0001) %MON dynstat_vvel_sd              =   9.0407280131502E-05
(PID.TID 0000.0001) %MON dynstat_vvel_del2            =   4.8864884177811E-07
(PID.TID 0000.0001) %MON dynstat_wvel_max             =   1.9263002347371E-04
(PID.TID 0000.0001) %MON dynstat_wvel_min             =  -1.8963689790515E-04
(PID.TID 0000.0001) %MON dynstat_wvel_mean            =  -8.2507427465690E-09
(PID.TID 0000.0001) %MON dynstat_wvel_sd              =   2.6802307351759E-05
(PID.TID 0000.0001) %MON dynstat_wvel_del2            =   1.4385389106995E-07
(PID.TID 0000.0001) %MON dynstat_theta_max            =   1.2000000000000E+00
(PID.TID 0000.0001) %MON dynstat_theta_min            =  -1.0000000000000E+00
(PID.TID 0000.0001) %MON dynstat_theta_mean           =   5.6547750630306E-01
(PID.TID 0000.0001) %MON dynstat_theta_sd             =   8.4906282427623E-01
(PID.TID 0000.0001) %MON dynstat_theta_del2           =   2.1802603896345E-06
(PID.TID 0000.0001) %MON dynstat_salt_max             =   3.4700000000000E+01
(PID.TID 0000.0001) %MON dynstat_salt_min             =   3.4000000000000E+01
(PID.TID 0000.0001) %MON dynstat_salt_mean            =   3.4498104307101E+01
(PID.TID 0000.0001) %MON dynstat_salt_sd              =   2.7015661455848E-01
(PID.TID 0000.0001) %MON dynstat_salt_del2            =   6.8306045759754E-07
(PID.TID 0000.0001) %MON advcfl_uvel_max              =   2.6778650284240E-04
(PID.TID 0000.0001) %MON advcfl_vvel_max              =   2.5491220486984E-04
(PID.TID 0000.0001) %MON advcfl_wvel_max              =   9.6315011736854E-04
(PID.TID 0000.0001) %MON advcfl_W_hf_max              =   9.6315011736854E-04
(PID.TID 0000.0001) %MON pe_b_mean                    =  -6.8294440055528E-01
(PID.TID 0000.0001) %MON ke_max                       =   4.2589800023391E-06
(PID.TID 0000.0001) %MON ke_mean                      =   6.4247998649704E-09
(PID.TID 0000.0001) %MON ke_vol                       =   4.6182862285405E+12
(PID.TID 0000.0001) // =======================================================
(PID.TID 0000.0001) // End MONITOR dynamic field statistics
(PID.TID 0000.0001) // =======================================================
(PID.TID 0000.0001) // =======================================================
(PID.TID 0000.0001) // Begin OBCS MONITOR field statistics
(PID.TID 0000.0001) // =======================================================
(PID.TID 0000.0001) %MON obc_N_vVel_max               =  -1.0425673947906E-05
(PID.TID 0000.0001) %MON obc_N_vVel_min               =  -1.0425673947906E-05
(PID.TID 0000.0001) %MON obc_N_vVel_mean              =  -1.0425673947906E-05
(PID.TID 0000.0001) %MON obc_N_vVel_sd                =  -5.9582853497960E-24
(PID.TID 0000.0001) %MON obc_N_vVel_Int               =  -6.8809448056180E+02
(PID.TID 0000.0001) // =======================================================
(PID.TID 0000.0001) // End OBCS MONITOR field statistics
(PID.TID 0000.0001) // =======================================================
 cg2d: Sum(rhs),rhsMax =   3.01260744134897E+00  4.53053840224713E+02
(PID.TID 0000.0001)      cg2d_init_res =   2.94107247302557E-06
(PID.TID 0000.0001)      cg2d_iters(min,last) =      -1      72
(PID.TID 0000.0001)      cg2d_last_res =   8.54789247716985E-12
(PID.TID 0000.0001) // =======================================================
(PID.TID 0000.0001) // Begin MONITOR dynamic field statistics
(PID.TID 0000.0001) // =======================================================
(PID.TID 0000.0001) %MON time_tsnumber                =                   136
(PID.TID 0000.0001) %MON time_secondsf                =   1.3600000000000E+04
(PID.TID 0000.0001) %MON dynstat_eta_max              =   5.7958467716804E+00
(PID.TID 0000.0001) %MON dynstat_eta_min              =  -1.4178160205674E+01
(PID.TID 0000.0001) %MON dynstat_eta_mean             =  -2.5275432785050E+00
(PID.TID 0000.0001) %MON dynstat_eta_sd               =   4.9421200637628E+00
(PID.TID 0000.0001) %MON dynstat_eta_del2             =   1.9058060264915E-01
(PID.TID 0000.0001) %MON dynstat_uvel_max             =   2.3159439938034E-03
(PID.TID 0000.0001) %MON dynstat_uvel_min             =  -2.6948551052519E-03
(PID.TID 0000.0001) %MON dynstat_uvel_mean            =   2.4021332527113E-08
(PID.TID 0000.0001) %MON dynstat_uvel_sd              =   6.8108181169765E-05
(PID.TID 0000.0001) %MON dynstat_uvel_del2            =   4.1731466760034E-07
(PID.TID 0000.0001) %MON dynstat_vvel_max             =   2.5635642337463E-03
(PID.TID 0000.0001) %MON dynstat_vvel_min             =  -2.1671727281767E-03
(PID.TID 0000.0001) %MON dynstat_vvel_mean            =  -1.2710292669812E-05
(PID.TID 0000.0001) %MON dynstat_vvel_sd              =   9.0458494278053E-05
(PID.TID 0000.0001) %MON dynstat_vvel_del2            =   4.8831227656342E-07
(PID.TID 0000.0001) %MON dynstat_wvel_max             =   1.9351564503125E-04
(PID.TID 0000.0001) %MON dynstat_wvel_min             =  -1.7503883077079E-04
(PID.TID 0000.0001) %MON dynstat_wvel_mean            =  -4.8253737579835E-09
(PID.TID 0000.0001) %MON dynstat_wvel_sd              =   2.6670264019621E-05
(PID.TID 0000.0001) %MON dynstat_wvel_del2            =   1.4287587710749E-07
(PID.TID 0000.0001) %MON dynstat_theta_max            =   1.2000000000000E+00
(PID.TID 0000.0001) %MON dynstat_theta_min            =  -1.0000000000000E+00
(PID.TID 0000.0001) %MON dynstat_theta_mean           =   5.6547729999245E-01
(PID.TID 0000.0001) %MON dynstat_theta_sd             =   8.4906278296937E-01
(PID.TID 0000.0001) %MON dynstat_theta_del2           =   2.1682367422293E-06
(PID.TID 0000.0001) %MON dynstat_salt_max             =   3.4700000000000E+01
(PID.TID 0000.0001) %MON dynstat_salt_min             =   3.4000000000000E+01
(PID.TID 0000.0001) %MON dynstat_salt_mean            =   3.4498104225633E+01
(PID.TID 0000.0001) %MON dynstat_salt_sd              =   2.7015660322134E-01
(PID.TID 0000.0001) %MON dynstat_salt_del2            =   6.7918927729614E-07
(PID.TID 0000.0001) %MON advcfl_uvel_max              =   2.6948551052519E-04
(PID.TID 0000.0001) %MON advcfl_vvel_max              =   2.5635642337463E-04
(PID.TID 0000.0001) %MON advcfl_wvel_max              =   9.6757822515627E-04
(PID.TID 0000.0001) %MON advcfl_W_hf_max              =   9.6757822515627E-04
(PID.TID 0000.0001) %MON pe_b_mean                    =  -6.8294120893797E-01
(PID.TID 0000.0001) %MON ke_max                       =   4.2990794441472E-06
(PID.TID 0000.0001) %MON ke_mean                      =   6.4473192192730E-09
(PID.TID 0000.0001) %MON ke_vol                       =   4.6182863080673E+12
(PID.TID 0000.0001) // =======================================================
(PID.TID 0000.0001) // End MONITOR dynamic field statistics
(PID.TID 0000.0001) // =======================================================
(PID.TID 0000.0001) // =======================================================
(PID.TID 0000.0001) // Begin OBCS MONITOR field statistics
(PID.TID 0000.0001) // =======================================================
(PID.TID 0000.0001) %MON obc_N_vVel_max               =  -1.1233447979257E-05
(PID.TID 0000.0001) %MON obc_N_vVel_min               =  -1.1233447979257E-05
(PID.TID 0000.0001) %MON obc_N_vVel_mean              =  -1.1233447979257E-05
(PID.TID 0000.0001) %MON obc_N_vVel_sd                =  -4.4202463983302E-24
(PID.TID 0000.0001) %MON obc_N_vVel_Int               =  -7.4140756663093E+02
(PID.TID 0000.0001) // =======================================================
(PID.TID 0000.0001) // End OBCS MONITOR field statistics
(PID.TID 0000.0001) // =======================================================
 cg2d: Sum(rhs),rhsMax =   3.01258984090725E+00  4.53053842984740E+02
(PID.TID 0000.0001)      cg2d_init_res =   2.92041176738068E-06
(PID.TID 0000.0001)      cg2d_iters(min,last) =      -1      72
(PID.TID 0000.0001)      cg2d_last_res =   8.11724512314038E-12
(PID.TID 0000.0001) // =======================================================
(PID.TID 0000.0001) // Begin MONITOR dynamic field statistics
(PID.TID 0000.0001) // =======================================================
(PID.TID 0000.0001) %MON time_tsnumber                =                   137
(PID.TID 0000.0001) %MON time_secondsf                =   1.3700000000000E+04
(PID.TID 0000.0001) %MON dynstat_eta_max              =   5.7958704796455E+00
(PID.TID 0000.0001) %MON dynstat_eta_min              =  -1.4178127384906E+01
(PID.TID 0000.0001) %MON dynstat_eta_mean             =  -2.5275285273330E+00
(PID.TID 0000.0001) %MON dynstat_eta_sd               =   4.9421151070788E+00
(PID.TID 0000.0001) %MON dynstat_eta_del2             =   1.9058060262169E-01
(PID.TID 0000.0001) %MON dynstat_uvel_max             =   2.3252010362267E-03
(PID.TID 0000.0001) %MON dynstat_uvel_min             =  -2.7116686751032E-03
(PID.TID 0000.0001) %MON dynstat_uvel_mean            =   4.6547128685281E-09
(PID.TID 0000.0001) %MON dynstat_uvel_sd              =   6.8279996464517E-05
(PID.TID 0000.0001) %MON dynstat_uvel_del2            =   4.1764826037444E-07
(PID.TID 0000.0001) %MON dynstat_vvel_max             =   2.5780265274165E-03
(PID.TID 0000.0001) %MON dynstat_vvel_min             =  -2.1743287966682E-03
(PID.TID 0000.0001) %MON dynstat_vvel_mean            =  -1.2802657096520E-05
(PID.TID 0000.0001) %MON dynstat_vvel_sd              =   9.0536417266111E-05
(PID.TID 0000.0001) %MON dynstat_vvel_del2            =   4.8837926186096E-07
(PID.TID 0000.0001) %MON dynstat_wvel_max             =   1.9437834510947E-04
(PID.TID 0000.0001) %MON dynstat_wvel_min             =  -1.5677989290239E-04
(PID.TID 0000.0001) %MON dynstat_wvel_mean            =  -1.5008829548021E-09
(PID.TID 0000.0001) %MON dynstat_wvel_sd              =   2.6589298872819E-05
(PID.TID 0000.0001) %MON dynstat_wvel_del2            =   1.4253667652865E-07
(PID.TID 0000.0001) %MON dynstat_theta_max            =   1.2000000000000E+00
(PID.TID 0000.0001) %MON dynstat_theta_min            =  -1.0000000000000E+00
(PID.TID 0000.0001) %MON dynstat_theta_mean           =   5.6547709337143E-01
(PID.TID 0000.0001) %MON dynstat_theta_sd             =   8.4906274162045E-01
(PID.TID 0000.0001) %MON dynstat_theta_del2           =   2.1560769856026E-06
(PID.TID 0000.0001) %MON dynstat_salt_max             =   3.4700000000000E+01
(PID.TID 0000.0001) %MON dynstat_salt_min             =   3.4000000000000E+01
(PID.TID 0000.0001) %MON dynstat_salt_mean            =   3.4498104144065E+01
(PID.TID 0000.0001) %MON dynstat_salt_sd              =   2.7015659187049E-01
(PID.TID 0000.0001) %MON dynstat_salt_del2            =   6.7527720785363E-07
(PID.TID 0000.0001) %MON advcfl_uvel_max              =   2.7116686751032E-04
(PID.TID 0000.0001) %MON advcfl_vvel_max              =   2.5780265274165E-04
(PID.TID 0000.0001) %MON advcfl_wvel_max              =   9.7189172554737E-04
(PID.TID 0000.0001) %MON advcfl_W_hf_max              =   9.7189172554737E-04
(PID.TID 0000.0001) %MON pe_b_mean                    =  -6.8293801757237E-01
(PID.TID 0000.0001) %MON ke_max                       =   4.3388267605653E-06
(PID.TID 0000.0001) %MON ke_mean                      =   6.4670110551646E-09
(PID.TID 0000.0001) %MON ke_vol                       =   4.6182863929257E+12
(PID.TID 0000.0001) // =======================================================
(PID.TID 0000.0001) // End MONITOR dynamic field statistics
(PID.TID 0000.0001) // =======================================================
(PID.TID 0000.0001) // =======================================================
(PID.TID 0000.0001) // Begin OBCS MONITOR field statistics
(PID.TID 0000.0001) // =======================================================
(PID.TID 0000.0001) %MON obc_N_vVel_max               =  -1.1652127963613E-05
(PID.TID 0000.0001) %MON obc_N_vVel_min               =  -1.1652127963613E-05
(PID.TID 0000.0001) %MON obc_N_vVel_mean              =  -1.1652127963613E-05
(PID.TID 0000.0001) %MON obc_N_vVel_sd                =   3.6165997063533E-12
(PID.TID 0000.0001) %MON obc_N_vVel_Int               =  -7.6904044559843E+02
(PID.TID 0000.0001) // =======================================================
(PID.TID 0000.0001) // End OBCS MONITOR field statistics
(PID.TID 0000.0001) // =======================================================
 cg2d: Sum(rhs),rhsMax =   3.01257218474396E+00  4.53053845086905E+02
(PID.TID 0000.0001)      cg2d_init_res =   2.91396391146915E-06
(PID.TID 0000.0001)      cg2d_iters(min,last) =      -1      72
(PID.TID 0000.0001)      cg2d_last_res =   8.02172796621105E-12
(PID.TID 0000.0001) // =======================================================
(PID.TID 0000.0001) // Begin MONITOR dynamic field statistics
(PID.TID 0000.0001) // =======================================================
(PID.TID 0000.0001) %MON time_tsnumber                =                   138
(PID.TID 0000.0001) %MON time_secondsf                =   1.3800000000000E+04
(PID.TID 0000.0001) %MON dynstat_eta_max              =   5.7958937511599E+00
(PID.TID 0000.0001) %MON dynstat_eta_min              =  -1.4178095639004E+01
(PID.TID 0000.0001) %MON dynstat_eta_mean             =  -2.5275137257409E+00
(PID.TID 0000.0001) %MON dynstat_eta_sd               =   4.9421104610788E+00
(PID.TID 0000.0001) %MON dynstat_eta_del2             =   1.9058060260067E-01
(PID.TID 0000.0001) %MON dynstat_uvel_max             =   2.3342495180270E-03
(PID.TID 0000.0001) %MON dynstat_uvel_min             =  -2.7283049141917E-03
(PID.TID 0000.0001) %MON dynstat_uvel_mean            =  -1.3400833329376E-08
(PID.TID 0000.0001) %MON dynstat_uvel_sd              =   6.8448799714229E-05
(PID.TID 0000.0001) %MON dynstat_uvel_del2            =   4.1794864932751E-07
(PID.TID 0000.0001) %MON dynstat_vvel_max             =   2.5924935179367E-03
(PID.TID 0000.0001) %MON dynstat_vvel_min             =  -2.1809643830633E-03
(PID.TID 0000.0001) %MON dynstat_vvel_mean            =  -1.2510894431771E-05
(PID.TID 0000.0001) %MON dynstat_vvel_sd              =   9.0642304962426E-05
(PID.TID 0000.0001) %MON dynstat_vvel_del2            =   4.8880998542431E-07
(PID.TID 0000.0001) %MON dynstat_wvel_max             =   1.9521870642235E-04
(PID.TID 0000.0001) %MON dynstat_wvel_min             =  -1.3723795956248E-04
(PID.TID 0000.0001) %MON dynstat_wvel_mean            =   1.6316571389589E-09
(PID.TID 0000.0001) %MON dynstat_wvel_sd              =   2.6559803458348E-05
(PID.TID 0000.0001) %MON dynstat_wvel_del2            =   1.4280518957480E-07
(PID.TID 0000.0001) %MON dynstat_theta_max            =   1.2000000000000E+00
(PID.TID 0000.0001) %MON dynstat_theta_min            =  -1.0000000000000E+00
(PID.TID 0000.0001) %MON dynstat_theta_mean           =   5.6547688660126E-01
(PID.TID 0000.0001) %MON dynstat_theta_sd             =   8.4906270019684E-01
(PID.TID 0000.0001) %MON dynstat_theta_del2           =   2.1438010424867E-06
(PID.TID 0000.0001) %MON dynstat_salt_max             =   3.4700000000000E+01
(PID.TID 0000.0001) %MON dynstat_salt_min             =   3.4000000000000E+01
(PID.TID 0000.0001) %MON dynstat_salt_mean            =   3.4498104062450E+01
(PID.TID 0000.0001) %MON dynstat_salt_sd              =   2.7015658049588E-01
(PID.TID 0000.0001) %MON dynstat_salt_del2            =   6.7133074728219E-07
(PID.TID 0000.0001) %MON advcfl_uvel_max              =   2.7283049141917E-04
(PID.TID 0000.0001) %MON advcfl_vvel_max              =   2.5924935179367E-04
(PID.TID 0000.0001) %MON advcfl_wvel_max              =   9.7609353211174E-04
(PID.TID 0000.0001) %MON advcfl_W_hf_max              =   9.7609353211174E-04
(PID.TID 0000.0001) %MON pe_b_mean                    =  -6.8293490642801E-01
(PID.TID 0000.0001) %MON ke_max                       =   4.3782043791174E-06
(PID.TID 0000.0001) %MON ke_mean                      =   6.4842298831143E-09
(PID.TID 0000.0001) %MON ke_vol                       =   4.6182864805476E+12
(PID.TID 0000.0001) // =======================================================
(PID.TID 0000.0001) // End MONITOR dynamic field statistics
(PID.TID 0000.0001) // =======================================================
(PID.TID 0000.0001) // =======================================================
(PID.TID 0000.0001) // Begin OBCS MONITOR field statistics
(PID.TID 0000.0001) // =======================================================
(PID.TID 0000.0001) %MON obc_N_vVel_max               =  -1.1697461192671E-05
(PID.TID 0000.0001) %MON obc_N_vVel_min               =  -1.1697461192671E-05
(PID.TID 0000.0001) %MON obc_N_vVel_mean              =  -1.1697461192671E-05
(PID.TID 0000.0001) %MON obc_N_vVel_sd                =   1.7390742119435E-12
(PID.TID 0000.0001) %MON obc_N_vVel_Int               =  -7.7203243871628E+02
(PID.TID 0000.0001) // =======================================================
(PID.TID 0000.0001) // End OBCS MONITOR field statistics
(PID.TID 0000.0001) // =======================================================
 cg2d: Sum(rhs),rhsMax =   3.01255493560059E+00  4.53053846186565E+02
(PID.TID 0000.0001)      cg2d_init_res =   2.92099136740814E-06
(PID.TID 0000.0001)      cg2d_iters(min,last) =      -1      72
(PID.TID 0000.0001)      cg2d_last_res =   8.24207991847849E-12
(PID.TID 0000.0001) // =======================================================
(PID.TID 0000.0001) // Begin MONITOR dynamic field statistics
(PID.TID 0000.0001) // =======================================================
(PID.TID 0000.0001) %MON time_tsnumber                =                   139
(PID.TID 0000.0001) %MON time_secondsf                =   1.3900000000000E+04
(PID.TID 0000.0001) %MON dynstat_eta_max              =   5.7959159946031E+00
(PID.TID 0000.0001) %MON dynstat_eta_min              =  -1.4178065684404E+01
(PID.TID 0000.0001) %MON dynstat_eta_mean             =  -2.5274992600410E+00
(PID.TID 0000.0001) %MON dynstat_eta_sd               =   4.9421062223208E+00
(PID.TID 0000.0001) %MON dynstat_eta_del2             =   1.9058060257701E-01
(PID.TID 0000.0001) %MON dynstat_uvel_max             =   2.3430899869457E-03
(PID.TID 0000.0001) %MON dynstat_uvel_min             =  -2.7447629080708E-03
(PID.TID 0000.0001) %MON dynstat_uvel_mean            =  -2.9701203992963E-08
(PID.TID 0000.0001) %MON dynstat_uvel_sd              =   6.8614739521315E-05
(PID.TID 0000.0001) %MON dynstat_uvel_del2            =   4.1821625219807E-07
(PID.TID 0000.0001) %MON dynstat_vvel_max             =   2.6069456462920E-03
(PID.TID 0000.0001) %MON dynstat_vvel_min             =  -2.1871122616641E-03
(PID.TID 0000.0001) %MON dynstat_vvel_mean            =  -1.1871437977439E-05
(PID.TID 0000.0001) %MON dynstat_vvel_sd              =   9.0773375769770E-05
(PID.TID 0000.0001) %MON dynstat_vvel_del2            =   4.8951464196821E-07
(PID.TID 0000.0001) %MON dynstat_wvel_max             =   1.9603743825769E-04
(PID.TID 0000.0001) %MON dynstat_wvel_min             =  -1.3949836035337E-04
(PID.TID 0000.0001) %MON dynstat_wvel_mean            =   4.4932381234318E-09
(PID.TID 0000.0001) %MON dynstat_wvel_sd              =   2.6575295175545E-05
(PID.TID 0000.0001) %MON dynstat_wvel_del2            =   1.4356612159953E-07
(PID.TID 0000.0001) %MON dynstat_theta_max            =   1.2000000000000E+00
(PID.TID 0000.0001) %MON dynstat_theta_min            =  -1.0000000000000E+00
(PID.TID 0000.0001) %MON dynstat_theta_mean           =   5.6547667983518E-01
(PID.TID 0000.0001) %MON dynstat_theta_sd             =   8.4906265864779E-01
(PID.TID 0000.0001) %MON dynstat_theta_del2           =   2.1314584718472E-06
(PID.TID 0000.0001) %MON dynstat_salt_max             =   3.4700000000000E+01
(PID.TID 0000.0001) %MON dynstat_salt_min             =   3.4000000000000E+01
(PID.TID 0000.0001) %MON dynstat_salt_mean            =   3.4498103980836E+01
(PID.TID 0000.0001) %MON dynstat_salt_sd              =   2.7015656908136E-01
(PID.TID 0000.0001) %MON dynstat_salt_del2            =   6.6736581548183E-07
(PID.TID 0000.0001) %MON advcfl_uvel_max              =   2.7447629080708E-04
(PID.TID 0000.0001) %MON advcfl_vvel_max              =   2.6069456462920E-04
(PID.TID 0000.0001) %MON advcfl_wvel_max              =   9.8018719128845E-04
(PID.TID 0000.0001) %MON advcfl_W_hf_max              =   9.8018719128845E-04
(PID.TID 0000.0001) %MON pe_b_mean                    =  -6.8293194730904E-01
(PID.TID 0000.0001) %MON ke_max                       =   4.4171905885219E-06
(PID.TID 0000.0001) %MON ke_mean                      =   6.4995068451146E-09
(PID.TID 0000.0001) %MON ke_vol                       =   4.6182865684691E+12
(PID.TID 0000.0001) // =======================================================
(PID.TID 0000.0001) // End MONITOR dynamic field statistics
(PID.TID 0000.0001) // =======================================================
(PID.TID 0000.0001) // =======================================================
(PID.TID 0000.0001) // Begin OBCS MONITOR field statistics
(PID.TID 0000.0001) // =======================================================
(PID.TID 0000.0001) %MON obc_N_vVel_max               =  -1.1395109281440E-05
(PID.TID 0000.0001) %MON obc_N_vVel_min               =  -1.1395109281440E-05
(PID.TID 0000.0001) %MON obc_N_vVel_mean              =  -1.1395109281440E-05
(PID.TID 0000.0001) %MON obc_N_vVel_sd                =  -8.6336976435222E-24
(PID.TID 0000.0001) %MON obc_N_vVel_Int               =  -7.5207721257505E+02
(PID.TID 0000.0001) // =======================================================
(PID.TID 0000.0001) // End OBCS MONITOR field statistics
(PID.TID 0000.0001) // =======================================================
 cg2d: Sum(rhs),rhsMax =   3.01253851076747E+00  4.53053845978201E+02
(PID.TID 0000.0001)      cg2d_init_res =   2.93898897240314E-06
(PID.TID 0000.0001)      cg2d_iters(min,last) =      -1      72
(PID.TID 0000.0001)      cg2d_last_res =   8.52893227208897E-12
(PID.TID 0000.0001) // =======================================================
(PID.TID 0000.0001) // Begin MONITOR dynamic field statistics
(PID.TID 0000.0001) // =======================================================
(PID.TID 0000.0001) %MON time_tsnumber                =                   140
(PID.TID 0000.0001) %MON time_secondsf                =   1.4000000000000E+04
(PID.TID 0000.0001) %MON dynstat_eta_max              =   5.7959366915455E+00
(PID.TID 0000.0001) %MON dynstat_eta_min              =  -1.4178038132078E+01
(PID.TID 0000.0001) %MON dynstat_eta_mean             =  -2.5274854786308E+00
(PID.TID 0000.0001) %MON dynstat_eta_sd               =   4.9421024683066E+00
(PID.TID 0000.0001) %MON dynstat_eta_del2             =   1.9058060254312E-01
(PID.TID 0000.0001) %MON dynstat_uvel_max             =   2.3517223873899E-03
(PID.TID 0000.0001) %MON dynstat_uvel_min             =  -2.7610417075519E-03
(PID.TID 0000.0001) %MON dynstat_uvel_mean            =  -4.3892495842233E-08
(PID.TID 0000.0001) %MON dynstat_uvel_sd              =   6.8777955930453E-05
(PID.TID 0000.0001) %MON dynstat_uvel_del2            =   4.1845150945076E-07
(PID.TID 0000.0001) %MON dynstat_vvel_max             =   2.6213601066480E-03
(PID.TID 0000.0001) %MON dynstat_vvel_min             =  -2.1928100363731E-03
(PID.TID 0000.0001) %MON dynstat_vvel_mean            =  -1.0928406602868E-05
(PID.TID 0000.0001) %MON dynstat_vvel_sd              =   9.0923365931448E-05
(PID.TID 0000.0001) %MON dynstat_vvel_del2            =   4.9036754541945E-07
(PID.TID 0000.0001) %MON dynstat_wvel_max             =   1.9683534829715E-04
(PID.TID 0000.0001) %MON dynstat_wvel_min             =  -1.5443925521660E-04
(PID.TID 0000.0001) %MON dynstat_wvel_mean            =   7.0185791542705E-09
(PID.TID 0000.0001) %MON dynstat_wvel_sd              =   2.6623611756798E-05
(PID.TID 0000.0001) %MON dynstat_wvel_del2            =   1.4464216422752E-07
(PID.TID 0000.0001) %MON dynstat_theta_max            =   1.2000000000000E+00
(PID.TID 0000.0001) %MON dynstat_theta_min            =  -1.0000000000000E+00
(PID.TID 0000.0001) %MON dynstat_theta_mean           =   5.6547647321510E-01
(PID.TID 0000.0001) %MON dynstat_theta_sd             =   8.4906261691079E-01
(PID.TID 0000.0001) %MON dynstat_theta_del2           =   2.1191238114546E-06
(PID.TID 0000.0001) %MON dynstat_salt_max             =   3.4700000000000E+01
(PID.TID 0000.0001) %MON dynstat_salt_min             =   3.4000000000000E+01
(PID.TID 0000.0001) %MON dynstat_salt_mean            =   3.4498103899267E+01
(PID.TID 0000.0001) %MON dynstat_salt_sd              =   2.7015655760730E-01
(PID.TID 0000.0001) %MON dynstat_salt_del2            =   6.6340657759838E-07
(PID.TID 0000.0001) %MON advcfl_uvel_max              =   2.7610417075519E-04
(PID.TID 0000.0001) %MON advcfl_vvel_max              =   2.6213601066480E-04
(PID.TID 0000.0001) %MON advcfl_wvel_max              =   9.8417674148576E-04
(PID.TID 0000.0001) %MON advcfl_W_hf_max              =   9.8417674148576E-04
(PID.TID 0000.0001) %MON pe_b_mean                    =  -6.8292920231535E-01
(PID.TID 0000.0001) %MON ke_max                       =   4.4557601116346E-06
(PID.TID 0000.0001) %MON ke_mean                      =   6.5134335380517E-09
(PID.TID 0000.0001) %MON ke_vol                       =   4.6182866543954E+12
(PID.TID 0000.0001) // =======================================================
(PID.TID 0000.0001) // End MONITOR dynamic field statistics
(PID.TID 0000.0001) // =======================================================
(PID.TID 0000.0001) // =======================================================
(PID.TID 0000.0001) // Begin OBCS MONITOR field statistics
(PID.TID 0000.0001) // =======================================================
(PID.TID 0000.0001) %MON obc_N_vVel_max               =  -1.0779196264247E-05
(PID.TID 0000.0001) %MON obc_N_vVel_min               =  -1.0779196264248E-05
(PID.TID 0000.0001) %MON obc_N_vVel_mean              =  -1.0779196264247E-05
(PID.TID 0000.0001) %MON obc_N_vVel_sd                =   2.2708928049085E-12
(PID.TID 0000.0001) %MON obc_N_vVel_Int               =  -7.1142695344033E+02
(PID.TID 0000.0001) // =======================================================
(PID.TID 0000.0001) // End OBCS MONITOR field statistics
(PID.TID 0000.0001) // =======================================================
 cg2d: Sum(rhs),rhsMax =   3.01252327297026E+00  4.53053844204125E+02
(PID.TID 0000.0001)      cg2d_init_res =   2.96410727951536E-06
(PID.TID 0000.0001)      cg2d_iters(min,last) =      -1      72
(PID.TID 0000.0001)      cg2d_last_res =   8.54277476135720E-12
(PID.TID 0000.0001) // =======================================================
(PID.TID 0000.0001) // Begin MONITOR dynamic field statistics
(PID.TID 0000.0001) // =======================================================
(PID.TID 0000.0001) %MON time_tsnumber                =                   141
(PID.TID 0000.0001) %MON time_secondsf                =   1.4100000000000E+04
(PID.TID 0000.0001) %MON dynstat_eta_max              =   5.7959554068475E+00
(PID.TID 0000.0001) %MON dynstat_eta_min              =  -1.4178013476912E+01
(PID.TID 0000.0001) %MON dynstat_eta_mean             =  -2.5274726843955E+00
(PID.TID 0000.0001) %MON dynstat_eta_sd               =   4.9420992565567E+00
(PID.TID 0000.0001) %MON dynstat_eta_del2             =   1.9058060249293E-01
(PID.TID 0000.0001) %MON dynstat_uvel_max             =   2.3601461473568E-03
(PID.TID 0000.0001) %MON dynstat_uvel_min             =  -2.7771403829220E-03
(PID.TID 0000.0001) %MON dynstat_uvel_mean            =  -5.5713829828019E-08
(PID.TID 0000.0001) %MON dynstat_uvel_sd              =   6.8938579714970E-05
(PID.TID 0000.0001) %MON dynstat_uvel_del2            =   4.1865488581647E-07
(PID.TID 0000.0001) %MON dynstat_vvel_max             =   2.6357117925944E-03
(PID.TID 0000.0001) %MON dynstat_vvel_min             =  -2.1980987219141E-03
(PID.TID 0000.0001) %MON dynstat_vvel_mean            =  -9.7317430655648E-06
(PID.TID 0000.0001) %MON dynstat_vvel_sd              =   9.1083532554326E-05
(PID.TID 0000.0001) %MON dynstat_vvel_del2            =   4.9122530800381E-07
(PID.TID 0000.0001) %MON dynstat_wvel_max             =   1.9761331900815E-04
(PID.TID 0000.0001) %MON dynstat_wvel_min             =  -1.6609267420301E-04
(PID.TID 0000.0001) %MON dynstat_wvel_mean            =   9.1570718971343E-09
(PID.TID 0000.0001) %MON dynstat_wvel_sd              =   2.6688872500991E-05
(PID.TID 0000.0001) %MON dynstat_wvel_del2            =   1.4582422673240E-07
(PID.TID 0000.0001) %MON dynstat_theta_max            =   1.2000000000000E+00
(PID.TID 0000.0001) %MON dynstat_theta_min            =  -1.0000000000000E+00
(PID.TID 0000.0001) %MON dynstat_theta_mean           =   5.6547626686840E-01
(PID.TID 0000.0001) %MON dynstat_theta_sd             =   8.4906257494151E-01
(PID.TID 0000.0001) %MON dynstat_theta_del2           =   2.1068840777526E-06
(PID.TID 0000.0001) %MON dynstat_salt_max             =   3.4700000000000E+01
(PID.TID 0000.0001) %MON dynstat_salt_min             =   3.4000000000000E+01
(PID.TID 0000.0001) %MON dynstat_salt_mean            =   3.4498103817785E+01
(PID.TID 0000.0001) %MON dynstat_salt_sd              =   2.7015654605950E-01
(PID.TID 0000.0001) %MON dynstat_salt_del2            =   6.5948118698488E-07
(PID.TID 0000.0001) %MON advcfl_uvel_max              =   2.7771403829220E-04
(PID.TID 0000.0001) %MON advcfl_vvel_max              =   2.6357117925944E-04
(PID.TID 0000.0001) %MON advcfl_wvel_max              =   9.8806659504076E-04
(PID.TID 0000.0001) %MON advcfl_W_hf_max              =   9.8806659504076E-04
(PID.TID 0000.0001) %MON pe_b_mean                    =  -6.8292672270034E-01
(PID.TID 0000.0001) %MON ke_max                       =   4.4938850830539E-06
(PID.TID 0000.0001) %MON ke_mean                      =   6.5265661160513E-09
(PID.TID 0000.0001) %MON ke_vol                       =   4.6182867362569E+12
(PID.TID 0000.0001) // =======================================================
(PID.TID 0000.0001) // End MONITOR dynamic field statistics
(PID.TID 0000.0001) // =======================================================
(PID.TID 0000.0001) // =======================================================
(PID.TID 0000.0001) // Begin OBCS MONITOR field statistics
(PID.TID 0000.0001) // =======================================================
(PID.TID 0000.0001) %MON obc_N_vVel_max               =  -9.8906856910030E-06
(PID.TID 0000.0001) %MON obc_N_vVel_min               =  -9.8906856910032E-06
(PID.TID 0000.0001) %MON obc_N_vVel_mean              =  -9.8906856910030E-06
(PID.TID 0000.0001) %MON obc_N_vVel_sd                =   1.7090879257890E-12
(PID.TID 0000.0001) %MON obc_N_vVel_Int               =  -6.5278525560620E+02
(PID.TID 0000.0001) // =======================================================
(PID.TID 0000.0001) // End OBCS MONITOR field statistics
(PID.TID 0000.0001) // =======================================================
 cg2d: Sum(rhs),rhsMax =   3.01250952354727E+00  4.53053840658486E+02
(PID.TID 0000.0001)      cg2d_init_res =   2.99178380622341E-06
(PID.TID 0000.0001)      cg2d_iters(min,last) =      -1      72
(PID.TID 0000.0001)      cg2d_last_res =   8.32116717102996E-12
(PID.TID 0000.0001) // =======================================================
(PID.TID 0000.0001) // Begin MONITOR dynamic field statistics
(PID.TID 0000.0001) // =======================================================
(PID.TID 0000.0001) %MON time_tsnumber                =                   142
(PID.TID 0000.0001) %MON time_secondsf                =   1.4200000000000E+04
(PID.TID 0000.0001) %MON dynstat_eta_max              =   5.7959717955672E+00
(PID.TID 0000.0001) %MON dynstat_eta_min              =  -1.4177992091268E+01
(PID.TID 0000.0001) %MON dynstat_eta_mean             =  -2.5274611290062E+00
(PID.TID 0000.0001) %MON dynstat_eta_sd               =   4.9420966243470E+00
(PID.TID 0000.0001) %MON dynstat_eta_del2             =   1.9058060242193E-01
(PID.TID 0000.0001) %MON dynstat_uvel_max             =   2.3683602760709E-03
(PID.TID 0000.0001) %MON dynstat_uvel_min             =  -2.7930580741478E-03
(PID.TID 0000.0001) %MON dynstat_uvel_mean            =  -6.4996738467950E-08
(PID.TID 0000.0001) %MON dynstat_uvel_sd              =   6.9096732042194E-05
(PID.TID 0000.0001) %MON dynstat_uvel_del2            =   4.1882687065784E-07
(PID.TID 0000.0001) %MON dynstat_vvel_max             =   2.6499742424146E-03
(PID.TID 0000.0001) %MON dynstat_vvel_min             =  -2.2030213247888E-03
(PID.TID 0000.0001) %MON dynstat_vvel_mean            =  -8.3353128552600E-06
(PID.TID 0000.0001) %MON dynstat_vvel_sd              =   9.1243946375523E-05
(PID.TID 0000.0001) %MON dynstat_vvel_del2            =   4.9194629512577E-07
(PID.TID 0000.0001) %MON dynstat_wvel_max             =   1.9837227987859E-04
(PID.TID 0000.0001) %MON dynstat_wvel_min             =  -1.7566286295321E-04
(PID.TID 0000.0001) %MON dynstat_wvel_mean            =   1.0873226905577E-08
(PID.TID 0000.0001) %MON dynstat_wvel_sd              =   2.6753825869372E-05
(PID.TID 0000.0001) %MON dynstat_wvel_del2            =   1.4690271071006E-07
(PID.TID 0000.0001) %MON dynstat_theta_max            =   1.2000000000000E+00
(PID.TID 0000.0001) %MON dynstat_theta_min            =  -1.0000000000000E+00
(PID.TID 0000.0001) %MON dynstat_theta_mean           =   5.6547606090509E-01
(PID.TID 0000.0001) %MON dynstat_theta_sd             =   8.4906253273749E-01
(PID.TID 0000.0001) %MON dynstat_theta_del2           =   2.0948260324185E-06
(PID.TID 0000.0001) %MON dynstat_salt_max             =   3.4700000000000E+01
(PID.TID 0000.0001) %MON dynstat_salt_min             =   3.4000000000000E+01
(PID.TID 0000.0001) %MON dynstat_salt_mean            =   3.4498103736424E+01
(PID.TID 0000.0001) %MON dynstat_salt_sd              =   2.7015653443743E-01
(PID.TID 0000.0001) %MON dynstat_salt_del2            =   6.5561760097539E-07
(PID.TID 0000.0001) %MON advcfl_uvel_max              =   2.7930580741478E-04
(PID.TID 0000.0001) %MON advcfl_vvel_max              =   2.6499742424146E-04
(PID.TID 0000.0001) %MON advcfl_wvel_max              =   9.9186139939293E-04
(PID.TID 0000.0001) %MON advcfl_W_hf_max              =   9.9186139939293E-04
(PID.TID 0000.0001) %MON pe_b_mean                    =  -6.8292454813255E-01
(PID.TID 0000.0001) %MON ke_max                       =   4.5315359175225E-06
(PID.TID 0000.0001) %MON ke_mean                      =   6.5393603121676E-09
(PID.TID 0000.0001) %MON ke_vol                       =   4.6182868122547E+12
(PID.TID 0000.0001) // =======================================================
(PID.TID 0000.0001) // End MONITOR dynamic field statistics
(PID.TID 0000.0001) // =======================================================
(PID.TID 0000.0001) // =======================================================
(PID.TID 0000.0001) // Begin OBCS MONITOR field statistics
(PID.TID 0000.0001) // =======================================================
(PID.TID 0000.0001) %MON obc_N_vVel_max               =  -8.7756716831052E-06
(PID.TID 0000.0001) %MON obc_N_vVel_min               =  -8.7756716831053E-06
(PID.TID 0000.0001) %MON obc_N_vVel_mean              =  -8.7756716831052E-06
(PID.TID 0000.0001) %MON obc_N_vVel_sd                =   1.4866483105177E-12
(PID.TID 0000.0001) %MON obc_N_vVel_Int               =  -5.7919433108494E+02
(PID.TID 0000.0001) // =======================================================
(PID.TID 0000.0001) // End OBCS MONITOR field statistics
(PID.TID 0000.0001) // =======================================================
 cg2d: Sum(rhs),rhsMax =   3.01249749791028E+00  4.53053835193541E+02
(PID.TID 0000.0001)      cg2d_init_res =   3.01744485995856E-06
(PID.TID 0000.0001)      cg2d_iters(min,last) =      -1      72
(PID.TID 0000.0001)      cg2d_last_res =   8.73637695438885E-12
(PID.TID 0000.0001) // =======================================================
(PID.TID 0000.0001) // Begin MONITOR dynamic field statistics
(PID.TID 0000.0001) // =======================================================
(PID.TID 0000.0001) %MON time_tsnumber                =                   143
(PID.TID 0000.0001) %MON time_secondsf                =   1.4300000000000E+04
(PID.TID 0000.0001) %MON dynstat_eta_max              =   5.7959856065844E+00
(PID.TID 0000.0001) %MON dynstat_eta_min              =  -1.4177974222864E+01
(PID.TID 0000.0001) %MON dynstat_eta_mean             =  -2.5274510091467E+00
(PID.TID 0000.0001) %MON dynstat_eta_sd               =   4.9420945890584E+00
(PID.TID 0000.0001) %MON dynstat_eta_del2             =   1.9058060232677E-01
(PID.TID 0000.0001) %MON dynstat_uvel_max             =   2.3763634652987E-03
(PID.TID 0000.0001) %MON dynstat_uvel_min             =  -2.8087940356369E-03
(PID.TID 0000.0001) %MON dynstat_uvel_mean            =  -7.1661679268176E-08
(PID.TID 0000.0001) %MON dynstat_uvel_sd              =   6.9252524615082E-05
(PID.TID 0000.0001) %MON dynstat_uvel_del2            =   4.1896797801813E-07
(PID.TID 0000.0001) %MON dynstat_vvel_max             =   2.6641205560853E-03
(PID.TID 0000.0001) %MON dynstat_vvel_min             =  -2.2076214695872E-03
(PID.TID 0000.0001) %MON dynstat_vvel_mean            =  -6.7950226876599E-06
(PID.TID 0000.0001) %MON dynstat_vvel_sd              =   9.1394879569479E-05
(PID.TID 0000.0001) %MON dynstat_vvel_del2            =   4.9240868963260E-07
(PID.TID 0000.0001) %MON dynstat_wvel_max             =   1.9911317814261E-04
(PID.TID 0000.0001) %MON dynstat_wvel_min             =  -1.8330497626548E-04
(PID.TID 0000.0001) %MON dynstat_wvel_mean            =   1.2146632376007E-08
(PID.TID 0000.0001) %MON dynstat_wvel_sd              =   2.6802188435524E-05
(PID.TID 0000.0001) %MON dynstat_wvel_del2            =   1.4769448560700E-07
(PID.TID 0000.0001) %MON dynstat_theta_max            =   1.2000000000000E+00
(PID.TID 0000.0001) %MON dynstat_theta_min            =  -1.0000000000000E+00
(PID.TID 0000.0001) %MON dynstat_theta_mean           =   5.6547585541533E-01
(PID.TID 0000.0001) %MON dynstat_theta_sd             =   8.4906249022787E-01
(PID.TID 0000.0001) %MON dynstat_theta_del2           =   2.0830254305319E-06
(PID.TID 0000.0001) %MON dynstat_salt_max             =   3.4700000000000E+01
(PID.TID 0000.0001) %MON dynstat_salt_min             =   3.4000000000000E+01
(PID.TID 0000.0001) %MON dynstat_salt_mean            =   3.4498103655213E+01
(PID.TID 0000.0001) %MON dynstat_salt_sd              =   2.7015652271851E-01
(PID.TID 0000.0001) %MON dynstat_salt_del2            =   6.5184038641463E-07
(PID.TID 0000.0001) %MON advcfl_uvel_max              =   2.8087940356369E-04
(PID.TID 0000.0001) %MON advcfl_vvel_max              =   2.6641205560853E-04
(PID.TID 0000.0001) %MON advcfl_wvel_max              =   9.9556589071303E-04
(PID.TID 0000.0001) %MON advcfl_W_hf_max              =   9.9556589071303E-04
(PID.TID 0000.0001) %MON pe_b_mean                    =  -6.8292270635314E-01
(PID.TID 0000.0001) %MON ke_max                       =   4.5686821840203E-06
(PID.TID 0000.0001) %MON ke_mean                      =   6.5521406322882E-09
(PID.TID 0000.0001) %MON ke_vol                       =   4.6182868808937E+12
(PID.TID 0000.0001) // =======================================================
(PID.TID 0000.0001) // End MONITOR dynamic field statistics
(PID.TID 0000.0001) // =======================================================
(PID.TID 0000.0001) // =======================================================
(PID.TID 0000.0001) // Begin OBCS MONITOR field statistics
(PID.TID 0000.0001) // =======================================================
(PID.TID 0000.0001) %MON obc_N_vVel_max               =  -7.4836403077764E-06
(PID.TID 0000.0001) %MON obc_N_vVel_min               =  -7.4836403077765E-06
(PID.TID 0000.0001) %MON obc_N_vVel_mean              =  -7.4836403077765E-06
(PID.TID 0000.0001) %MON obc_N_vVel_sd                =  -3.1471637368228E-24
(PID.TID 0000.0001) %MON obc_N_vVel_Int               =  -4.9392026031325E+02
(PID.TID 0000.0001) // =======================================================
(PID.TID 0000.0001) // End OBCS MONITOR field statistics
(PID.TID 0000.0001) // =======================================================
 cg2d: Sum(rhs),rhsMax =   3.01248736331238E+00  4.53053827721186E+02
(PID.TID 0000.0001)      cg2d_init_res =   3.03711784397285E-06
(PID.TID 0000.0001)      cg2d_iters(min,last) =      -1      71
(PID.TID 0000.0001)      cg2d_last_res =   8.94814643027674E-12
(PID.TID 0000.0001) // =======================================================
(PID.TID 0000.0001) // Begin MONITOR dynamic field statistics
(PID.TID 0000.0001) // =======================================================
(PID.TID 0000.0001) %MON time_tsnumber                =                   144
(PID.TID 0000.0001) %MON time_secondsf                =   1.4400000000000E+04
(PID.TID 0000.0001) %MON dynstat_eta_max              =   5.7959966825197E+00
(PID.TID 0000.0001) %MON dynstat_eta_min              =  -1.4177959996673E+01
(PID.TID 0000.0001) %MON dynstat_eta_mean             =  -2.5274424646488E+00
(PID.TID 0000.0001) %MON dynstat_eta_sd               =   4.9420931490756E+00
(PID.TID 0000.0001) %MON dynstat_eta_del2             =   1.9058060220391E-01
(PID.TID 0000.0001) %MON dynstat_uvel_max             =   2.3841541942851E-03
(PID.TID 0000.0001) %MON dynstat_uvel_min             =  -2.8243476716727E-03
(PID.TID 0000.0001) %MON dynstat_uvel_mean            =  -7.5711625939147E-08
(PID.TID 0000.0001) %MON dynstat_uvel_sd              =   6.9406059548933E-05
(PID.TID 0000.0001) %MON dynstat_uvel_del2            =   4.1907874013294E-07
(PID.TID 0000.0001) %MON dynstat_vvel_max             =   2.6781242384777E-03
(PID.TID 0000.0001) %MON dynstat_vvel_min             =  -2.2119421036582E-03
(PID.TID 0000.0001) %MON dynstat_vvel_mean            =  -5.1670129518740E-06
(PID.TID 0000.0001) %MON dynstat_vvel_sd              =   9.1528096501109E-05
(PID.TID 0000.0001) %MON dynstat_vvel_del2            =   4.9252501743671E-07
(PID.TID 0000.0001) %MON dynstat_wvel_max             =   1.9983694808438E-04
(PID.TID 0000.0001) %MON dynstat_wvel_min             =  -1.8984295963633E-04
(PID.TID 0000.0001) %MON dynstat_wvel_mean            =   1.2971456872973E-08
(PID.TID 0000.0001) %MON dynstat_wvel_sd              =   2.6820656232227E-05
(PID.TID 0000.0001) %MON dynstat_wvel_del2            =   1.4806284037786E-07
(PID.TID 0000.0001) %MON dynstat_theta_max            =   1.2000000000000E+00
(PID.TID 0000.0001) %MON dynstat_theta_min            =  -1.0000000000000E+00
(PID.TID 0000.0001) %MON dynstat_theta_mean           =   5.6547565046822E-01
(PID.TID 0000.0001) %MON dynstat_theta_sd             =   8.4906244738064E-01
(PID.TID 0000.0001) %MON dynstat_theta_del2           =   2.0715351615650E-06
(PID.TID 0000.0001) %MON dynstat_salt_max             =   3.4700000000000E+01
(PID.TID 0000.0001) %MON dynstat_salt_min             =   3.4000000000000E+01
(PID.TID 0000.0001) %MON dynstat_salt_mean            =   3.4498103574174E+01
(PID.TID 0000.0001) %MON dynstat_salt_sd              =   2.7015651089228E-01
(PID.TID 0000.0001) %MON dynstat_salt_del2            =   6.4816648201383E-07
(PID.TID 0000.0001) %MON advcfl_uvel_max              =   2.8243476716727E-04
(PID.TID 0000.0001) %MON advcfl_vvel_max              =   2.6781242384777E-04
(PID.TID 0000.0001) %MON advcfl_wvel_max              =   9.9918474042191E-04
(PID.TID 0000.0001) %MON advcfl_W_hf_max              =   9.9918474042191E-04
(PID.TID 0000.0001) %MON pe_b_mean                    =  -6.8292121321328E-01
(PID.TID 0000.0001) %MON ke_max                       =   4.6052934717898E-06
(PID.TID 0000.0001) %MON ke_mean                      =   6.5651009213302E-09
(PID.TID 0000.0001) %MON ke_vol                       =   4.6182869410057E+12
(PID.TID 0000.0001) // =======================================================
(PID.TID 0000.0001) // End MONITOR dynamic field statistics
(PID.TID 0000.0001) // =======================================================
(PID.TID 0000.0001) // =======================================================
(PID.TID 0000.0001) // Begin OBCS MONITOR field statistics
(PID.TID 0000.0001) // =======================================================
(PID.TID 0000.0001) %MON obc_N_vVel_max               =  -6.0657561360632E-06
(PID.TID 0000.0001) %MON obc_N_vVel_min               =  -6.0657561360634E-06
(PID.TID 0000.0001) %MON obc_N_vVel_mean              =  -6.0657561360632E-06
(PID.TID 0000.0001) %MON obc_N_vVel_sd                =   1.4974761907433E-12
(PID.TID 0000.0001) %MON obc_N_vVel_Int               =  -4.0033990498017E+02
(PID.TID 0000.0001) // =======================================================
(PID.TID 0000.0001) // End OBCS MONITOR field statistics
(PID.TID 0000.0001) // =======================================================
 cg2d: Sum(rhs),rhsMax =   3.01247921879355E+00  4.53053818213703E+02
(PID.TID 0000.0001)      cg2d_init_res =   3.04786913493108E-06
(PID.TID 0000.0001)      cg2d_iters(min,last) =      -1      70
(PID.TID 0000.0001)      cg2d_last_res =   9.79708519005434E-12
(PID.TID 0000.0001) // =======================================================
(PID.TID 0000.0001) // Begin MONITOR dynamic field statistics
(PID.TID 0000.0001) // =======================================================
(PID.TID 0000.0001) %MON time_tsnumber                =                   145
(PID.TID 0000.0001) %MON time_secondsf                =   1.4500000000000E+04
(PID.TID 0000.0001) %MON dynstat_eta_max              =   5.7960049585636E+00
(PID.TID 0000.0001) %MON dynstat_eta_min              =  -1.4177949419318E+01
(PID.TID 0000.0001) %MON dynstat_eta_mean             =  -2.5274355784516E+00
(PID.TID 0000.0001) %MON dynstat_eta_sd               =   4.9420922853074E+00
(PID.TID 0000.0001) %MON dynstat_eta_del2             =   1.9058060205634E-01
(PID.TID 0000.0001) %MON dynstat_uvel_max             =   2.3917308365231E-03
(PID.TID 0000.0001) %MON dynstat_uvel_min             =  -2.8397185622806E-03
(PID.TID 0000.0001) %MON dynstat_uvel_mean            =  -7.7225837339270E-08
(PID.TID 0000.0001) %MON dynstat_uvel_sd              =   6.9557429946932E-05
(PID.TID 0000.0001) %MON dynstat_uvel_del2            =   4.1915970418492E-07
(PID.TID 0000.0001) %MON dynstat_vvel_max             =   2.6919600890487E-03
(PID.TID 0000.0001) %MON dynstat_vvel_min             =  -2.2160243667493E-03
(PID.TID 0000.0001) %MON dynstat_vvel_mean            =  -3.5059748511060E-06
(PID.TID 0000.0001) %MON dynstat_vvel_sd              =   9.1637882145901E-05
(PID.TID 0000.0001) %MON dynstat_vvel_del2            =   4.9225165573092E-07
(PID.TID 0000.0001) %MON dynstat_wvel_max             =   2.0054451291765E-04
(PID.TID 0000.0001) %MON dynstat_wvel_min             =  -1.9233795490360E-04
(PID.TID 0000.0001) %MON dynstat_wvel_mean            =   1.3355617361103E-08
(PID.TID 0000.0001) %MON dynstat_wvel_sd              =   2.6800379166158E-05
(PID.TID 0000.0001) %MON dynstat_wvel_del2            =   1.4792975897728E-07
(PID.TID 0000.0001) %MON dynstat_theta_max            =   1.2000000000000E+00
(PID.TID 0000.0001) %MON dynstat_theta_min            =  -1.0000000000000E+00
(PID.TID 0000.0001) %MON dynstat_theta_mean           =   5.6547544611199E-01
(PID.TID 0000.0001) %MON dynstat_theta_sd             =   8.4906240422974E-01
(PID.TID 0000.0001) %MON dynstat_theta_del2           =   2.0603814655877E-06
(PID.TID 0000.0001) %MON dynstat_salt_max             =   3.4700000000000E+01
(PID.TID 0000.0001) %MON dynstat_salt_min             =   3.4000000000000E+01
(PID.TID 0000.0001) %MON dynstat_salt_mean            =   3.4498103493323E+01
(PID.TID 0000.0001) %MON dynstat_salt_sd              =   2.7015649896951E-01
(PID.TID 0000.0001) %MON dynstat_salt_del2            =   6.4460439802849E-07
(PID.TID 0000.0001) %MON advcfl_uvel_max              =   2.8397185622806E-04
(PID.TID 0000.0001) %MON advcfl_vvel_max              =   2.6919600890487E-04
(PID.TID 0000.0001) %MON advcfl_wvel_max              =   1.0027225645882E-03
(PID.TID 0000.0001) %MON advcfl_W_hf_max              =   1.0027225645882E-03
(PID.TID 0000.0001) %MON pe_b_mean                    =  -6.8292007306460E-01
(PID.TID 0000.0001) %MON ke_max                       =   4.6413401532115E-06
(PID.TID 0000.0001) %MON ke_mean                      =   6.5783288621378E-09
(PID.TID 0000.0001) %MON ke_vol                       =   4.6182869917600E+12
(PID.TID 0000.0001) // =======================================================
(PID.TID 0000.0001) // End MONITOR dynamic field statistics
(PID.TID 0000.0001) // =======================================================
(PID.TID 0000.0001) // =======================================================
(PID.TID 0000.0001) // Begin OBCS MONITOR field statistics
(PID.TID 0000.0001) // =======================================================
(PID.TID 0000.0001) %MON obc_N_vVel_max               =  -4.5732268805679E-06
(PID.TID 0000.0001) %MON obc_N_vVel_min               =  -4.5732268805679E-06
(PID.TID 0000.0001) %MON obc_N_vVel_mean              =  -4.5732268805679E-06
(PID.TID 0000.0001) %MON obc_N_vVel_sd                =  -4.1682148054430E-25
(PID.TID 0000.0001) %MON obc_N_vVel_Int               =  -3.0183297411748E+02
(PID.TID 0000.0001) // =======================================================
(PID.TID 0000.0001) // End OBCS MONITOR field statistics
(PID.TID 0000.0001) // =======================================================
 cg2d: Sum(rhs),rhsMax =   3.01247309716297E+00  4.53053806700249E+02
(PID.TID 0000.0001)      cg2d_init_res =   3.04792925291348E-06
(PID.TID 0000.0001)      cg2d_iters(min,last) =      -1      71
(PID.TID 0000.0001)      cg2d_last_res =   9.12421578208510E-12
(PID.TID 0000.0001) // =======================================================
(PID.TID 0000.0001) // Begin MONITOR dynamic field statistics
(PID.TID 0000.0001) // =======================================================
(PID.TID 0000.0001) %MON time_tsnumber                =                   146
(PID.TID 0000.0001) %MON time_secondsf                =   1.4600000000000E+04
(PID.TID 0000.0001) %MON dynstat_eta_max              =   5.7960104620757E+00
(PID.TID 0000.0001) %MON dynstat_eta_min              =  -1.4177942389913E+01
(PID.TID 0000.0001) %MON dynstat_eta_mean             =  -2.5274303782440E+00
(PID.TID 0000.0001) %MON dynstat_eta_sd               =   4.9420919628220E+00
(PID.TID 0000.0001) %MON dynstat_eta_del2             =   1.9058060188044E-01
(PID.TID 0000.0001) %MON dynstat_uvel_max             =   2.3990917609105E-03
(PID.TID 0000.0001) %MON dynstat_uvel_min             =  -2.8549064956309E-03
(PID.TID 0000.0001) %MON dynstat_uvel_mean            =  -7.6351310142119E-08
(PID.TID 0000.0001) %MON dynstat_uvel_sd              =   6.9706719834082E-05
(PID.TID 0000.0001) %MON dynstat_uvel_del2            =   4.1921142313189E-07
(PID.TID 0000.0001) %MON dynstat_vvel_max             =   2.7056046904406E-03
(PID.TID 0000.0001) %MON dynstat_vvel_min             =  -2.2199064466140E-03
(PID.TID 0000.0001) %MON dynstat_vvel_mean            =  -1.8636289579570E-06
(PID.TID 0000.0001) %MON dynstat_vvel_sd              =   9.1721701327349E-05
(PID.TID 0000.0001) %MON dynstat_vvel_del2            =   4.9159266493178E-07
(PID.TID 0000.0001) %MON dynstat_wvel_max             =   2.0123671595387E-04
(PID.TID 0000.0001) %MON dynstat_wvel_min             =  -1.9074043087427E-04
(PID.TID 0000.0001) %MON dynstat_wvel_mean            =   1.3319614422962E-08
(PID.TID 0000.0001) %MON dynstat_wvel_sd              =   2.6737812194380E-05
(PID.TID 0000.0001) %MON dynstat_wvel_del2            =   1.4728115082303E-07
(PID.TID 0000.0001) %MON dynstat_theta_max            =   1.2000000000000E+00
(PID.TID 0000.0001) %MON dynstat_theta_min            =  -1.0000000000000E+00
(PID.TID 0000.0001) %MON dynstat_theta_mean           =   5.6547524237345E-01
(PID.TID 0000.0001) %MON dynstat_theta_sd             =   8.4906236081996E-01
(PID.TID 0000.0001) %MON dynstat_theta_del2           =   2.0495591220570E-06
(PID.TID 0000.0001) %MON dynstat_salt_max             =   3.4700000000000E+01
(PID.TID 0000.0001) %MON dynstat_salt_min             =   3.4000000000000E+01
(PID.TID 0000.0001) %MON dynstat_salt_mean            =   3.4498103412668E+01
(PID.TID 0000.0001) %MON dynstat_salt_sd              =   2.7015648696463E-01
(PID.TID 0000.0001) %MON dynstat_salt_del2            =   6.4115241178479E-07
(PID.TID 0000.0001) %MON advcfl_uvel_max              =   2.8549064956309E-04
(PID.TID 0000.0001) %MON advcfl_vvel_max              =   2.7056046904406E-04
(PID.TID 0000.0001) %MON advcfl_wvel_max              =   1.0061835797694E-03
(PID.TID 0000.0001) %MON advcfl_W_hf_max              =   1.0061835797694E-03
(PID.TID 0000.0001) %MON pe_b_mean                    =  -6.8291927946062E-01
(PID.TID 0000.0001) %MON ke_max                       =   4.6767942754752E-06
(PID.TID 0000.0001) %MON ke_mean                      =   6.5918451546592E-09
(PID.TID 0000.0001) %MON ke_vol                       =   4.6182870326640E+12
(PID.TID 0000.0001) // =======================================================
(PID.TID 0000.0001) // End MONITOR dynamic field statistics
(PID.TID 0000.0001) // =======================================================
(PID.TID 0000.0001) // =======================================================
(PID.TID 0000.0001) // Begin OBCS MONITOR field statistics
(PID.TID 0000.0001) // =======================================================
(PID.TID 0000.0001) %MON obc_N_vVel_max               =  -3.0557758661159E-06
(PID.TID 0000.0001) %MON obc_N_vVel_min               =  -3.0557758661160E-06
(PID.TID 0000.0001) %MON obc_N_vVel_mean              =  -3.0557758661160E-06
(PID.TID 0000.0001) %MON obc_N_vVel_sd                =  -3.3119536244799E-25
(PID.TID 0000.0001) %MON obc_N_vVel_Int               =  -2.0168120716366E+02
(PID.TID 0000.0001) // =======================================================
(PID.TID 0000.0001) // End OBCS MONITOR field statistics
(PID.TID 0000.0001) // =======================================================
 cg2d: Sum(rhs),rhsMax =   3.01246896877634E+00  4.53053793269515E+02
(PID.TID 0000.0001)      cg2d_init_res =   3.03701856739771E-06
(PID.TID 0000.0001)      cg2d_iters(min,last) =      -1      71
(PID.TID 0000.0001)      cg2d_last_res =   8.38452843527722E-12
(PID.TID 0000.0001) // =======================================================
(PID.TID 0000.0001) // Begin MONITOR dynamic field statistics
(PID.TID 0000.0001) // =======================================================
(PID.TID 0000.0001) %MON time_tsnumber                =                   147
(PID.TID 0000.0001) %MON time_secondsf                =   1.4700000000000E+04
(PID.TID 0000.0001) %MON dynstat_eta_max              =   5.7960132932419E+00
(PID.TID 0000.0001) %MON dynstat_eta_min              =  -1.4177938706233E+01
(PID.TID 0000.0001) %MON dynstat_eta_mean             =  -2.5274268396497E+00
(PID.TID 0000.0001) %MON dynstat_eta_sd               =   4.9420921332767E+00
(PID.TID 0000.0001) %MON dynstat_eta_del2             =   1.9058060168169E-01
(PID.TID 0000.0001) %MON dynstat_uvel_max             =   2.4062353791852E-03
(PID.TID 0000.0001) %MON dynstat_uvel_min             =  -2.8699114834536E-03
(PID.TID 0000.0001) %MON dynstat_uvel_mean            =  -7.3289935667627E-08
(PID.TID 0000.0001) %MON dynstat_uvel_sd              =   6.9854005323636E-05
(PID.TID 0000.0001) %MON dynstat_uvel_del2            =   4.1923445366172E-07
(PID.TID 0000.0001) %MON dynstat_vvel_max             =   2.7190372061172E-03
(PID.TID 0000.0001) %MON dynstat_vvel_min             =  -2.2236227601855E-03
(PID.TID 0000.0001) %MON dynstat_vvel_mean            =  -2.8739967538510E-07
(PID.TID 0000.0001) %MON dynstat_vvel_sd              =   9.1780415731368E-05
(PID.TID 0000.0001) %MON dynstat_vvel_del2            =   4.9059775179539E-07
(PID.TID 0000.0001) %MON dynstat_wvel_max             =   2.0191433387913E-04
(PID.TID 0000.0001) %MON dynstat_wvel_min             =  -1.8509374739788E-04
(PID.TID 0000.0001) %MON dynstat_wvel_mean            =   1.2894769671197E-08
(PID.TID 0000.0001) %MON dynstat_wvel_sd              =   2.6634905249447E-05
(PID.TID 0000.0001) %MON dynstat_wvel_del2            =   1.4616567738967E-07
(PID.TID 0000.0001) %MON dynstat_theta_max            =   1.2000000000000E+00
(PID.TID 0000.0001) %MON dynstat_theta_min            =  -1.0000000000000E+00
(PID.TID 0000.0001) %MON dynstat_theta_mean           =   5.6547503925898E-01
(PID.TID 0000.0001) %MON dynstat_theta_sd             =   8.4906231717044E-01
(PID.TID 0000.0001) %MON dynstat_theta_del2           =   2.0390335579636E-06
(PID.TID 0000.0001) %MON dynstat_salt_max             =   3.4700000000000E+01
(PID.TID 0000.0001) %MON dynstat_salt_min             =   3.4000000000000E+01
(PID.TID 0000.0001) %MON dynstat_salt_mean            =   3.4498103332210E+01
(PID.TID 0000.0001) %MON dynstat_salt_sd              =   2.7015647488363E-01
(PID.TID 0000.0001) %MON dynstat_salt_del2            =   6.3779932449035E-07
(PID.TID 0000.0001) %MON advcfl_uvel_max              =   2.8699114834536E-04
(PID.TID 0000.0001) %MON advcfl_vvel_max              =   2.7190372061172E-04
(PID.TID 0000.0001) %MON advcfl_wvel_max              =   1.0095716693956E-03
(PID.TID 0000.0001) %MON advcfl_W_hf_max              =   1.0095716693956E-03
(PID.TID 0000.0001) %MON pe_b_mean                    =  -6.8291881612718E-01
(PID.TID 0000.0001) %MON ke_max                       =   4.7116301153714E-06
(PID.TID 0000.0001) %MON ke_mean                      =   6.6056457611921E-09
(PID.TID 0000.0001) %MON ke_vol                       =   4.6182870635532E+12
(PID.TID 0000.0001) // =======================================================
(PID.TID 0000.0001) // End MONITOR dynamic field statistics
(PID.TID 0000.0001) // =======================================================
(PID.TID 0000.0001) // =======================================================
(PID.TID 0000.0001) // Begin OBCS MONITOR field statistics
(PID.TID 0000.0001) // =======================================================
(PID.TID 0000.0001) %MON obc_N_vVel_max               =  -1.5602631533259E-06
(PID.TID 0000.0001) %MON obc_N_vVel_min               =  -1.5602631533259E-06
(PID.TID 0000.0001) %MON obc_N_vVel_mean              =  -1.5602631533259E-06
(PID.TID 0000.0001) %MON obc_N_vVel_sd                =  -4.8467614016779E-26
(PID.TID 0000.0001) %MON obc_N_vVel_Int               =  -1.0297736811951E+02
(PID.TID 0000.0001) // =======================================================
(PID.TID 0000.0001) // End OBCS MONITOR field statistics
(PID.TID 0000.0001) // =======================================================
 cg2d: Sum(rhs),rhsMax =   3.01246674696213E+00  4.53053778056258E+02
(PID.TID 0000.0001)      cg2d_init_res =   3.01597913003054E-06
(PID.TID 0000.0001)      cg2d_iters(min,last) =      -1      66
(PID.TID 0000.0001)      cg2d_last_res =   8.36438441790982E-12
(PID.TID 0000.0001) // =======================================================
(PID.TID 0000.0001) // Begin MONITOR dynamic field statistics
(PID.TID 0000.0001) // =======================================================
(PID.TID 0000.0001) %MON time_tsnumber                =                   148
(PID.TID 0000.0001) %MON time_secondsf                =   1.4800000000000E+04
(PID.TID 0000.0001) %MON dynstat_eta_max              =   5.7960136287638E+00
(PID.TID 0000.0001) %MON dynstat_eta_min              =  -1.4177938083410E+01
(PID.TID 0000.0001) %MON dynstat_eta_mean             =  -2.5274248907038E+00
(PID.TID 0000.0001) %MON dynstat_eta_sd               =   4.9420927371366E+00
(PID.TID 0000.0001) %MON dynstat_eta_del2             =   1.9058060146290E-01
(PID.TID 0000.0001) %MON dynstat_uvel_max             =   2.4131603034938E-03
(PID.TID 0000.0001) %MON dynstat_uvel_min             =  -2.8847337704321E-03
(PID.TID 0000.0001) %MON dynstat_uvel_mean            =  -6.8287776481896E-08
(PID.TID 0000.0001) %MON dynstat_uvel_sd              =   6.9999355152190E-05
(PID.TID 0000.0001) %MON dynstat_uvel_del2            =   4.1922934707193E-07
(PID.TID 0000.0001) %MON dynstat_vvel_max             =   2.7322397738931E-03
(PID.TID 0000.0001) %MON dynstat_vvel_min             =  -2.2272032565169E-03
(PID.TID 0000.0001) %MON dynstat_vvel_mean            =   1.1806762930995E-06
(PID.TID 0000.0001) %MON dynstat_vvel_sd              =   9.1818055093443E-05
(PID.TID 0000.0001) %MON dynstat_vvel_del2            =   4.8935484601035E-07
(PID.TID 0000.0001) %MON dynstat_wvel_max             =   2.0257806459972E-04
(PID.TID 0000.0001) %MON dynstat_wvel_min             =  -1.7553365637335E-04
(PID.TID 0000.0001) %MON dynstat_wvel_mean            =   1.2121860547442E-08
(PID.TID 0000.0001) %MON dynstat_wvel_sd              =   2.6498667197812E-05
(PID.TID 0000.0001) %MON dynstat_wvel_del2            =   1.4468782785369E-07
(PID.TID 0000.0001) %MON dynstat_theta_max            =   1.2000000000000E+00
(PID.TID 0000.0001) %MON dynstat_theta_min            =  -1.0000000000000E+00
(PID.TID 0000.0001) %MON dynstat_theta_mean           =   5.6547483675571E-01
(PID.TID 0000.0001) %MON dynstat_theta_sd             =   8.4906227323725E-01
(PID.TID 0000.0001) %MON dynstat_theta_del2           =   2.0287442294927E-06
(PID.TID 0000.0001) %MON dynstat_salt_max             =   3.4700000000000E+01
(PID.TID 0000.0001) %MON dynstat_salt_min             =   3.4000000000000E+01
(PID.TID 0000.0001) %MON dynstat_salt_mean            =   3.4498103251947E+01
(PID.TID 0000.0001) %MON dynstat_salt_sd              =   2.7015646271235E-01
(PID.TID 0000.0001) %MON dynstat_salt_del2            =   6.3452537553332E-07
(PID.TID 0000.0001) %MON advcfl_uvel_max              =   2.8847337704321E-04
(PID.TID 0000.0001) %MON advcfl_vvel_max              =   2.7322397738931E-04
(PID.TID 0000.0001) %MON advcfl_wvel_max              =   1.0128903229986E-03
(PID.TID 0000.0001) %MON advcfl_W_hf_max              =   1.0128903229986E-03
(PID.TID 0000.0001) %MON pe_b_mean                    =  -6.8291865815832E-01
(PID.TID 0000.0001) %MON ke_max                       =   4.7458248319866E-06
(PID.TID 0000.0001) %MON ke_mean                      =   6.6197376523483E-09
(PID.TID 0000.0001) %MON ke_vol                       =   4.6182870845725E+12
(PID.TID 0000.0001) // =======================================================
(PID.TID 0000.0001) // End MONITOR dynamic field statistics
(PID.TID 0000.0001) // =======================================================
(PID.TID 0000.0001) // =======================================================
(PID.TID 0000.0001) // Begin OBCS MONITOR field statistics
(PID.TID 0000.0001) // =======================================================
(PID.TID 0000.0001) %MON obc_N_vVel_max               =  -1.2951769065553E-07
(PID.TID 0000.0001) %MON obc_N_vVel_min               =  -1.2951769065553E-07
(PID.TID 0000.0001) %MON obc_N_vVel_mean              =  -1.2951769065553E-07
(PID.TID 0000.0001) %MON obc_N_vVel_sd                =   1.7674527390217E-14
(PID.TID 0000.0001) %MON obc_N_vVel_Int               =  -8.5481675832649E+00
(PID.TID 0000.0001) // =======================================================
(PID.TID 0000.0001) // End OBCS MONITOR field statistics
(PID.TID 0000.0001) // =======================================================
 cg2d: Sum(rhs),rhsMax =   3.01246629466331E+00  4.53053761244092E+02
(PID.TID 0000.0001)      cg2d_init_res =   2.98686918252957E-06
(PID.TID 0000.0001)      cg2d_iters(min,last) =      -1      70
(PID.TID 0000.0001)      cg2d_last_res =   9.68626657148701E-12
(PID.TID 0000.0001) // =======================================================
(PID.TID 0000.0001) // Begin MONITOR dynamic field statistics
(PID.TID 0000.0001) // =======================================================
(PID.TID 0000.0001) %MON time_tsnumber                =                   149
(PID.TID 0000.0001) %MON time_secondsf                =   1.4900000000000E+04
(PID.TID 0000.0001) %MON dynstat_eta_max              =   5.7960117054687E+00
(PID.TID 0000.0001) %MON dynstat_eta_min              =  -1.4177940161398E+01
(PID.TID 0000.0001) %MON dynstat_eta_mean             =  -2.5274244174412E+00
(PID.TID 0000.0001) %MON dynstat_eta_sd               =   4.9420937062599E+00
(PID.TID 0000.0001) %MON dynstat_eta_del2             =   1.9058060122405E-01
(PID.TID 0000.0001) %MON dynstat_uvel_max             =   2.4198653777514E-03
(PID.TID 0000.0001) %MON dynstat_uvel_min             =  -2.8993738086538E-03
(PID.TID 0000.0001) %MON dynstat_uvel_mean            =  -6.1627507767144E-08
(PID.TID 0000.0001) %MON dynstat_uvel_sd              =   7.0142831421656E-05
(PID.TID 0000.0001) %MON dynstat_uvel_del2            =   4.1919665066236E-07
(PID.TID 0000.0001) %MON dynstat_vvel_max             =   2.7451978226036E-03
(PID.TID 0000.0001) %MON dynstat_vvel_min             =  -2.2306729685706E-03
(PID.TID 0000.0001) %MON dynstat_vvel_mean            =   2.5048256195110E-06
(PID.TID 0000.0001) %MON dynstat_vvel_sd              =   9.1841188568055E-05
(PID.TID 0000.0001) %MON dynstat_vvel_del2            =   4.8797825080736E-07
(PID.TID 0000.0001) %MON dynstat_wvel_max             =   2.0322853196546E-04
(PID.TID 0000.0001) %MON dynstat_wvel_min             =  -1.6228550438547E-04
(PID.TID 0000.0001) %MON dynstat_wvel_mean            =   1.1048939123960E-08
(PID.TID 0000.0001) %MON dynstat_wvel_sd              =   2.6340163621485E-05
(PID.TID 0000.0001) %MON dynstat_wvel_del2            =   1.4299555714257E-07
(PID.TID 0000.0001) %MON dynstat_theta_max            =   1.2000000000000E+00
(PID.TID 0000.0001) %MON dynstat_theta_min            =  -1.0000000000000E+00
(PID.TID 0000.0001) %MON dynstat_theta_mean           =   5.6547463483331E-01
(PID.TID 0000.0001) %MON dynstat_theta_sd             =   8.4906222905995E-01
(PID.TID 0000.0001) %MON dynstat_theta_del2           =   2.0186133740029E-06
(PID.TID 0000.0001) %MON dynstat_salt_max             =   3.4700000000000E+01
(PID.TID 0000.0001) %MON dynstat_salt_min             =   3.4000000000000E+01
(PID.TID 0000.0001) %MON dynstat_salt_mean            =   3.4498103171867E+01
(PID.TID 0000.0001) %MON dynstat_salt_sd              =   2.7015645046317E-01
(PID.TID 0000.0001) %MON dynstat_salt_del2            =   6.3130519959317E-07
(PID.TID 0000.0001) %MON advcfl_uvel_max              =   2.8993738086538E-04
(PID.TID 0000.0001) %MON advcfl_vvel_max              =   2.7451978226036E-04
(PID.TID 0000.0001) %MON advcfl_wvel_max              =   1.0161426598273E-03
(PID.TID 0000.0001) %MON advcfl_W_hf_max              =   1.0161426598273E-03
(PID.TID 0000.0001) %MON pe_b_mean                    =  -6.8291877337903E-01
(PID.TID 0000.0001) %MON ke_max                       =   4.7793588757078E-06
(PID.TID 0000.0001) %MON ke_mean                      =   6.6341609736171E-09
(PID.TID 0000.0001) %MON ke_vol                       =   4.6182870961492E+12
(PID.TID 0000.0001) // =======================================================
(PID.TID 0000.0001) // End MONITOR dynamic field statistics
(PID.TID 0000.0001) // =======================================================
(PID.TID 0000.0001) // =======================================================
(PID.TID 0000.0001) // Begin OBCS MONITOR field statistics
(PID.TID 0000.0001) // =======================================================
(PID.TID 0000.0001) %MON obc_N_vVel_max               =   1.1986600609224E-06
(PID.TID 0000.0001) %MON obc_N_vVel_min               =   1.1986600609223E-06
(PID.TID 0000.0001) %MON obc_N_vVel_mean              =   1.1986600609223E-06
(PID.TID 0000.0001) %MON obc_N_vVel_sd                =   3.3236391242117E-13
(PID.TID 0000.0001) %MON obc_N_vVel_Int               =   7.9111564020874E+01
(PID.TID 0000.0001) // =======================================================
(PID.TID 0000.0001) // End OBCS MONITOR field statistics
(PID.TID 0000.0001) // =======================================================
 cg2d: Sum(rhs),rhsMax =   3.01246743218825E+00  4.53053743050185E+02
(PID.TID 0000.0001)      cg2d_init_res =   2.95281744748543E-06
(PID.TID 0000.0001)      cg2d_iters(min,last) =      -1      69
(PID.TID 0000.0001)      cg2d_last_res =   9.73284186006822E-12
(PID.TID 0000.0001) // =======================================================
(PID.TID 0000.0001) // Begin MONITOR dynamic field statistics
(PID.TID 0000.0001) // =======================================================
(PID.TID 0000.0001) %MON time_tsnumber                =                   150
(PID.TID 0000.0001) %MON time_secondsf                =   1.5000000000000E+04
(PID.TID 0000.0001) %MON dynstat_eta_max              =   5.7960078103638E+00
(PID.TID 0000.0001) %MON dynstat_eta_min              =  -1.4177944532621E+01
(PID.TID 0000.0001) %MON dynstat_eta_mean             =  -2.5274252703142E+00
(PID.TID 0000.0001) %MON dynstat_eta_sd               =   4.9420949667474E+00
(PID.TID 0000.0001) %MON dynstat_eta_del2             =   1.9058060097438E-01
(PID.TID 0000.0001) %MON dynstat_uvel_max             =   2.4263496504080E-03
(PID.TID 0000.0001) %MON dynstat_uvel_min             =  -2.9138323198972E-03
(PID.TID 0000.0001) %MON dynstat_uvel_mean            =  -5.3623530395779E-08
(PID.TID 0000.0001) %MON dynstat_uvel_sd              =   7.0284490726860E-05
(PID.TID 0000.0001) %MON dynstat_uvel_del2            =   4.1913690469083E-07
(PID.TID 0000.0001) %MON dynstat_vvel_max             =   2.7579003468805E-03
(PID.TID 0000.0001) %MON dynstat_vvel_min             =  -2.2340514451074E-03
(PID.TID 0000.0001) %MON dynstat_vvel_mean            =   3.6561333202689E-06
(PID.TID 0000.0001) %MON dynstat_vvel_sd              =   9.1857988160789E-05
(PID.TID 0000.0001) %MON dynstat_vvel_del2            =   4.8659376958503E-07
(PID.TID 0000.0001) %MON dynstat_wvel_max             =   2.0386617547675E-04
(PID.TID 0000.0001) %MON dynstat_wvel_min             =  -1.4578728612536E-04
(PID.TID 0000.0001) %MON dynstat_wvel_mean            =   9.7297505214705E-09
(PID.TID 0000.0001) %MON dynstat_wvel_sd              =   2.6173050984933E-05
(PID.TID 0000.0001) %MON dynstat_wvel_del2            =   1.4126288863507E-07
(PID.TID 0000.0001) %MON dynstat_theta_max            =   1.2000000000000E+00
(PID.TID 0000.0001) %MON dynstat_theta_min            =  -1.0000000000000E+00
(PID.TID 0000.0001) %MON dynstat_theta_mean           =   5.6547443344653E-01
(PID.TID 0000.0001) %MON dynstat_theta_sd             =   8.4906218462172E-01
(PID.TID 0000.0001) %MON dynstat_theta_del2           =   2.0085558135660E-06
(PID.TID 0000.0001) %MON dynstat_salt_max             =   3.4700000000000E+01
(PID.TID 0000.0001) %MON dynstat_salt_min             =   3.4000000000000E+01
(PID.TID 0000.0001) %MON dynstat_salt_mean            =   3.4498103091958E+01
(PID.TID 0000.0001) %MON dynstat_salt_sd              =   2.7015643813074E-01
(PID.TID 0000.0001) %MON dynstat_salt_del2            =   6.2811123418667E-07
(PID.TID 0000.0001) %MON advcfl_uvel_max              =   2.9138323198972E-04
(PID.TID 0000.0001) %MON advcfl_vvel_max              =   2.7579003468805E-04
(PID.TID 0000.0001) %MON advcfl_wvel_max              =   1.0193308773838E-03
(PID.TID 0000.0001) %MON advcfl_W_hf_max              =   1.0193308773838E-03
(PID.TID 0000.0001) %MON pe_b_mean                    =  -6.8291912383364E-01
(PID.TID 0000.0001) %MON ke_max                       =   4.8122165348445E-06
(PID.TID 0000.0001) %MON ke_mean                      =   6.6489941025519E-09
(PID.TID 0000.0001) %MON ke_vol                       =   4.6182870989604E+12
(PID.TID 0000.0001) // =======================================================
(PID.TID 0000.0001) // End MONITOR dynamic field statistics
(PID.TID 0000.0001) // =======================================================
(PID.TID 0000.0001) // =======================================================
(PID.TID 0000.0001) // Begin OBCS MONITOR field statistics
(PID.TID 0000.0001) // =======================================================
(PID.TID 0000.0001) %MON obc_N_vVel_max               =   2.3922430943446E-06
(PID.TID 0000.0001) %MON obc_N_vVel_min               =   2.3922430943446E-06
(PID.TID 0000.0001) %MON obc_N_vVel_mean              =   2.3922430943446E-06
(PID.TID 0000.0001) %MON obc_N_vVel_sd                =   3.8342982302402E-13
(PID.TID 0000.0001) %MON obc_N_vVel_Int               =   1.5788804422674E+02
(PID.TID 0000.0001) // =======================================================
(PID.TID 0000.0001) // End OBCS MONITOR field statistics
(PID.TID 0000.0001) // =======================================================
 cg2d: Sum(rhs),rhsMax =   3.01246994563600E+00  4.53053723723591E+02
(PID.TID 0000.0001)      cg2d_init_res =   2.91727625302712E-06
(PID.TID 0000.0001)      cg2d_iters(min,last) =      -1      69
(PID.TID 0000.0001)      cg2d_last_res =   8.55887557804566E-12
(PID.TID 0000.0001) // =======================================================
(PID.TID 0000.0001) // Begin MONITOR dynamic field statistics
(PID.TID 0000.0001) // =======================================================
(PID.TID 0000.0001) %MON time_tsnumber                =                   151
(PID.TID 0000.0001) %MON time_secondsf                =   1.5100000000000E+04
(PID.TID 0000.0001) %MON dynstat_eta_max              =   5.7960022671972E+00
(PID.TID 0000.0001) %MON dynstat_eta_min              =  -1.4177950742539E+01
(PID.TID 0000.0001) %MON dynstat_eta_mean             =  -2.5274272712515E+00
(PID.TID 0000.0001) %MON dynstat_eta_sd               =   4.9420964412528E+00
(PID.TID 0000.0001) %MON dynstat_eta_del2             =   1.9058060071528E-01
(PID.TID 0000.0001) %MON dynstat_uvel_max             =   2.4326125744860E-03
(PID.TID 0000.0001) %MON dynstat_uvel_min             =  -2.9281101822023E-03
(PID.TID 0000.0001) %MON dynstat_uvel_mean            =  -4.4606708106020E-08
(PID.TID 0000.0001) %MON dynstat_uvel_sd              =   7.0424385562665E-05
(PID.TID 0000.0001) %MON dynstat_uvel_del2            =   4.1905064195606E-07
(PID.TID 0000.0001) %MON dynstat_vvel_max             =   2.7703400486256E-03
(PID.TID 0000.0001) %MON dynstat_vvel_min             =  -2.2373528551558E-03
(PID.TID 0000.0001) %MON dynstat_vvel_mean            =   4.6129232205851E-06
(PID.TID 0000.0001) %MON dynstat_vvel_sd              =   9.1877113288521E-05
(PID.TID 0000.0001) %MON dynstat_vvel_del2            =   4.8532261604950E-07
(PID.TID 0000.0001) %MON dynstat_wvel_max             =   2.0449142512787E-04
(PID.TID 0000.0001) %MON dynstat_wvel_min             =  -1.2632594731536E-04
(PID.TID 0000.0001) %MON dynstat_wvel_mean            =   8.2209675124216E-09
(PID.TID 0000.0001) %MON dynstat_wvel_sd              =   2.6011796045723E-05
(PID.TID 0000.0001) %MON dynstat_wvel_del2            =   1.3966838001457E-07
(PID.TID 0000.0001) %MON dynstat_theta_max            =   1.2000000000000E+00
(PID.TID 0000.0001) %MON dynstat_theta_min            =  -1.0000000000000E+00
(PID.TID 0000.0001) %MON dynstat_theta_mean           =   5.6547423253720E-01
(PID.TID 0000.0001) %MON dynstat_theta_sd             =   8.4906213998374E-01
(PID.TID 0000.0001) %MON dynstat_theta_del2           =   1.9984903459978E-06
(PID.TID 0000.0001) %MON dynstat_salt_max             =   3.4700000000000E+01
(PID.TID 0000.0001) %MON dynstat_salt_min             =   3.4000000000000E+01
(PID.TID 0000.0001) %MON dynstat_salt_mean            =   3.4498103012199E+01
(PID.TID 0000.0001) %MON dynstat_salt_sd              =   2.7015642573434E-01
(PID.TID 0000.0001) %MON dynstat_salt_del2            =   6.2491704229506E-07
(PID.TID 0000.0001) %MON advcfl_uvel_max              =   2.9281101822023E-04
(PID.TID 0000.0001) %MON advcfl_vvel_max              =   2.7703400486256E-04
(PID.TID 0000.0001) %MON advcfl_wvel_max              =   1.0224571256393E-03
(PID.TID 0000.0001) %MON advcfl_W_hf_max              =   1.0224571256393E-03
(PID.TID 0000.0001) %MON pe_b_mean                    =  -6.8291966732516E-01
(PID.TID 0000.0001) %MON ke_max                       =   4.8443857787665E-06
(PID.TID 0000.0001) %MON ke_mean                      =   6.6643420644348E-09
(PID.TID 0000.0001) %MON ke_vol                       =   4.6182870938943E+12
(PID.TID 0000.0001) // =======================================================
(PID.TID 0000.0001) // End MONITOR dynamic field statistics
(PID.TID 0000.0001) // =======================================================
(PID.TID 0000.0001) // =======================================================
(PID.TID 0000.0001) // Begin OBCS MONITOR field statistics
(PID.TID 0000.0001) // =======================================================
(PID.TID 0000.0001) %MON obc_N_vVel_max               =   3.4255602756772E-06
(PID.TID 0000.0001) %MON obc_N_vVel_min               =   3.4255602756771E-06
(PID.TID 0000.0001) %MON obc_N_vVel_mean              =   3.4255602756772E-06
(PID.TID 0000.0001) %MON obc_N_vVel_sd                =  -4.9113848870336E-25
(PID.TID 0000.0001) %MON obc_N_vVel_Int               =   2.2608697819470E+02
(PID.TID 0000.0001) // =======================================================
(PID.TID 0000.0001) // End OBCS MONITOR field statistics
(PID.TID 0000.0001) // =======================================================
 cg2d: Sum(rhs),rhsMax =   3.01247359566573E+00  4.53053703535028E+02
(PID.TID 0000.0001)      cg2d_init_res =   2.88384907708784E-06
(PID.TID 0000.0001)      cg2d_iters(min,last) =      -1      69
(PID.TID 0000.0001)      cg2d_last_res =   7.98341005540229E-12
(PID.TID 0000.0001) // =======================================================
(PID.TID 0000.0001) // Begin MONITOR dynamic field statistics
(PID.TID 0000.0001) // =======================================================
(PID.TID 0000.0001) %MON time_tsnumber                =                   152
(PID.TID 0000.0001) %MON time_secondsf                =   1.5200000000000E+04
(PID.TID 0000.0001) %MON dynstat_eta_max              =   5.7959954253067E+00
(PID.TID 0000.0001) %MON dynstat_eta_min              =  -1.4177958319132E+01
(PID.TID 0000.0001) %MON dynstat_eta_mean             =  -2.5274302209590E+00
(PID.TID 0000.0001) %MON dynstat_eta_sd               =   4.9420980517825E+00
(PID.TID 0000.0001) %MON dynstat_eta_del2             =   1.9058060045299E-01
(PID.TID 0000.0001) %MON dynstat_uvel_max             =   2.4386538942469E-03
(PID.TID 0000.0001) %MON dynstat_uvel_min             =  -2.9422085281163E-03
(PID.TID 0000.0001) %MON dynstat_uvel_mean            =  -3.4911988603678E-08
(PID.TID 0000.0001) %MON dynstat_uvel_sd              =   7.0562565656241E-05
(PID.TID 0000.0001) %MON dynstat_uvel_del2            =   4.1893839034239E-07
(PID.TID 0000.0001) %MON dynstat_vvel_max             =   2.7825132167276E-03
(PID.TID 0000.0001) %MON dynstat_vvel_min             =  -2.2405859043353E-03
(PID.TID 0000.0001) %MON dynstat_vvel_mean            =   5.3608720655142E-06
(PID.TID 0000.0001) %MON dynstat_vvel_sd              =   9.1906570984866E-05
(PID.TID 0000.0001) %MON dynstat_vvel_del2            =   4.8426615471632E-07
(PID.TID 0000.0001) %MON dynstat_wvel_max             =   2.0510453940785E-04
(PID.TID 0000.0001) %MON dynstat_wvel_min             =  -1.3341552283590E-04
(PID.TID 0000.0001) %MON dynstat_wvel_mean            =   6.5813523828781E-09
(PID.TID 0000.0001) %MON dynstat_wvel_sd              =   2.5869781884839E-05
(PID.TID 0000.0001) %MON dynstat_wvel_del2            =   1.3837143321611E-07
(PID.TID 0000.0001) %MON dynstat_theta_max            =   1.2000000000000E+00
(PID.TID 0000.0001) %MON dynstat_theta_min            =  -1.0000000000000E+00
(PID.TID 0000.0001) %MON dynstat_theta_mean           =   5.6547403203672E-01
(PID.TID 0000.0001) %MON dynstat_theta_sd             =   8.4906209522841E-01
(PID.TID 0000.0001) %MON dynstat_theta_del2           =   1.9883499484393E-06
(PID.TID 0000.0001) %MON dynstat_salt_max             =   3.4700000000000E+01
(PID.TID 0000.0001) %MON dynstat_salt_min             =   3.4000000000000E+01
(PID.TID 0000.0001) %MON dynstat_salt_mean            =   3.4498102932571E+01
(PID.TID 0000.0001) %MON dynstat_salt_sd              =   2.7015641329989E-01
(PID.TID 0000.0001) %MON dynstat_salt_del2            =   6.2170069362311E-07
(PID.TID 0000.0001) %MON advcfl_uvel_max              =   2.9422085281163E-04
(PID.TID 0000.0001) %MON advcfl_vvel_max              =   2.7825132167276E-04
(PID.TID 0000.0001) %MON advcfl_wvel_max              =   1.0255226970393E-03
(PID.TID 0000.0001) %MON advcfl_W_hf_max              =   1.0255226970393E-03
(PID.TID 0000.0001) %MON pe_b_mean                    =  -6.8292035898094E-01
(PID.TID 0000.0001) %MON ke_max                       =   4.8758587440121E-06
(PID.TID 0000.0001) %MON ke_mean                      =   6.6803125204470E-09
(PID.TID 0000.0001) %MON ke_vol                       =   4.6182870820088E+12
(PID.TID 0000.0001) // =======================================================
(PID.TID 0000.0001) // End MONITOR dynamic field statistics
(PID.TID 0000.0001) // =======================================================
(PID.TID 0000.0001) // =======================================================
(PID.TID 0000.0001) // Begin OBCS MONITOR field statistics
(PID.TID 0000.0001) // =======================================================
(PID.TID 0000.0001) %MON obc_N_vVel_max               =   4.2795140112738E-06
(PID.TID 0000.0001) %MON obc_N_vVel_min               =   4.2795140112738E-06
(PID.TID 0000.0001) %MON obc_N_vVel_mean              =   4.2795140112738E-06
(PID.TID 0000.0001) %MON obc_N_vVel_sd                =  -1.6155871338926E-25
(PID.TID 0000.0001) %MON obc_N_vVel_Int               =   2.8244792474407E+02
(PID.TID 0000.0001) // =======================================================
(PID.TID 0000.0001) // End OBCS MONITOR field statistics
(PID.TID 0000.0001) // =======================================================
 cg2d: Sum(rhs),rhsMax =   3.01247812651686E+00  4.53053682765328E+02
(PID.TID 0000.0001)      cg2d_init_res =   2.85578351868575E-06
(PID.TID 0000.0001)      cg2d_iters(min,last) =      -1      68
(PID.TID 0000.0001)      cg2d_last_res =   9.93726065196426E-12
(PID.TID 0000.0001) // =======================================================
(PID.TID 0000.0001) // Begin MONITOR dynamic field statistics
(PID.TID 0000.0001) // =======================================================
(PID.TID 0000.0001) %MON time_tsnumber                =                   153
(PID.TID 0000.0001) %MON time_secondsf                =   1.5300000000000E+04
(PID.TID 0000.0001) %MON dynstat_eta_max              =   5.7959876471651E+00
(PID.TID 0000.0001) %MON dynstat_eta_min              =  -1.4177966781463E+01
(PID.TID 0000.0001) %MON dynstat_eta_mean             =  -2.5274339064231E+00
(PID.TID 0000.0001) %MON dynstat_eta_sd               =   4.9420997219437E+00
(PID.TID 0000.0001) %MON dynstat_eta_del2             =   1.9058060019266E-01
(PID.TID 0000.0001) %MON dynstat_uvel_max             =   2.4444736772384E-03
(PID.TID 0000.0001) %MON dynstat_uvel_min             =  -2.9561286359834E-03
(PID.TID 0000.0001) %MON dynstat_uvel_mean            =  -2.4870342116259E-08
(PID.TID 0000.0001) %MON dynstat_uvel_sd              =   7.0699079427851E-05
(PID.TID 0000.0001) %MON dynstat_uvel_del2            =   4.1880067688536E-07
(PID.TID 0000.0001) %MON dynstat_vvel_max             =   2.7944196992200E-03
(PID.TID 0000.0001) %MON dynstat_vvel_min             =  -2.2437539815812E-03
(PID.TID 0000.0001) %MON dynstat_vvel_mean            =   5.8929066033347E-06
(PID.TID 0000.0001) %MON dynstat_vvel_sd              =   9.1952688711253E-05
(PID.TID 0000.0001) %MON dynstat_vvel_del2            =   4.8349340500460E-07
(PID.TID 0000.0001) %MON dynstat_wvel_max             =   2.0570568402096E-04
(PID.TID 0000.0001) %MON dynstat_wvel_min             =  -1.4641735950192E-04
(PID.TID 0000.0001) %MON dynstat_wvel_mean            =   4.8690317701001E-09
(PID.TID 0000.0001) %MON dynstat_wvel_sd              =   2.5757536046214E-05
(PID.TID 0000.0001) %MON dynstat_wvel_del2            =   1.3748965076413E-07
(PID.TID 0000.0001) %MON dynstat_theta_max            =   1.2000000000000E+00
(PID.TID 0000.0001) %MON dynstat_theta_min            =  -1.0000000000000E+00
(PID.TID 0000.0001) %MON dynstat_theta_mean           =   5.6547383186925E-01
(PID.TID 0000.0001) %MON dynstat_theta_sd             =   8.4906205040056E-01
(PID.TID 0000.0001) %MON dynstat_theta_del2           =   1.9780875755608E-06
(PID.TID 0000.0001) %MON dynstat_salt_max             =   3.4700000000000E+01
(PID.TID 0000.0001) %MON dynstat_salt_min             =   3.4000000000000E+01
(PID.TID 0000.0001) %MON dynstat_salt_mean            =   3.4498102853047E+01
(PID.TID 0000.0001) %MON dynstat_salt_sd              =   2.7015640084152E-01
(PID.TID 0000.0001) %MON dynstat_salt_del2            =   6.1844685650628E-07
(PID.TID 0000.0001) %MON advcfl_uvel_max              =   2.9561286359834E-04
(PID.TID 0000.0001) %MON advcfl_vvel_max              =   2.7944196992200E-04
(PID.TID 0000.0001) %MON advcfl_wvel_max              =   1.0285284201048E-03
(PID.TID 0000.0001) %MON advcfl_W_hf_max              =   1.0285284201048E-03
(PID.TID 0000.0001) %MON pe_b_mean                    =  -6.8292115278156E-01
(PID.TID 0000.0001) %MON ke_max                       =   4.9066314904148E-06
(PID.TID 0000.0001) %MON ke_mean                      =   6.6969842831406E-09
(PID.TID 0000.0001) %MON ke_vol                       =   4.6182870644875E+12
(PID.TID 0000.0001) // =======================================================
(PID.TID 0000.0001) // End MONITOR dynamic field statistics
(PID.TID 0000.0001) // =======================================================
(PID.TID 0000.0001) // =======================================================
(PID.TID 0000.0001) // Begin OBCS MONITOR field statistics
(PID.TID 0000.0001) // =======================================================
(PID.TID 0000.0001) %MON obc_N_vVel_max               =   4.9417550074569E-06
(PID.TID 0000.0001) %MON obc_N_vVel_min               =   4.9417550074567E-06
(PID.TID 0000.0001) %MON obc_N_vVel_mean              =   4.9417550074567E-06
(PID.TID 0000.0001) %MON obc_N_vVel_sd                =   1.2178296222844E-12
(PID.TID 0000.0001) %MON obc_N_vVel_Int               =   3.2615583049214E+02
(PID.TID 0000.0001) // =======================================================
(PID.TID 0000.0001) // End OBCS MONITOR field statistics
(PID.TID 0000.0001) // =======================================================
 cg2d: Sum(rhs),rhsMax =   3.01248327480457E+00  4.53053661695206E+02
(PID.TID 0000.0001)      cg2d_init_res =   2.83549353889160E-06
(PID.TID 0000.0001)      cg2d_iters(min,last) =      -1      68
(PID.TID 0000.0001)      cg2d_last_res =   9.68755731531920E-12
(PID.TID 0000.0001) // =======================================================
(PID.TID 0000.0001) // Begin MONITOR dynamic field statistics
(PID.TID 0000.0001) // =======================================================
(PID.TID 0000.0001) %MON time_tsnumber                =                   154
(PID.TID 0000.0001) %MON time_secondsf                =   1.5400000000000E+04
(PID.TID 0000.0001) %MON dynstat_eta_max              =   5.7959792969527E+00
(PID.TID 0000.0001) %MON dynstat_eta_min              =  -1.4177975659057E+01
(PID.TID 0000.0001) %MON dynstat_eta_mean             =  -2.5274381082329E+00
(PID.TID 0000.0001) %MON dynstat_eta_sd               =   4.9421013791365E+00
(PID.TID 0000.0001) %MON dynstat_eta_del2             =   1.9058059993851E-01
(PID.TID 0000.0001) %MON dynstat_uvel_max             =   2.4500723366856E-03
(PID.TID 0000.0001) %MON dynstat_uvel_min             =  -2.9698719402786E-03
(PID.TID 0000.0001) %MON dynstat_uvel_mean            =  -1.4800530415902E-08
(PID.TID 0000.0001) %MON dynstat_uvel_sd              =   7.0833974896578E-05
(PID.TID 0000.0001) %MON dynstat_uvel_del2            =   4.1863803000191E-07
(PID.TID 0000.0001) %MON dynstat_vvel_max             =   2.8060626712687E-03
(PID.TID 0000.0001) %MON dynstat_vvel_min             =  -2.2468555651987E-03
(PID.TID 0000.0001) %MON dynstat_vvel_mean            =   6.2088907721442E-06
(PID.TID 0000.0001) %MON dynstat_vvel_sd              =   9.2019339197885E-05
(PID.TID 0000.0001) %MON dynstat_vvel_del2            =   4.8303304429031E-07
(PID.TID 0000.0001) %MON dynstat_wvel_max             =   2.0629493846886E-04
(PID.TID 0000.0001) %MON dynstat_wvel_min             =  -1.5719108145169E-04
(PID.TID 0000.0001) %MON dynstat_wvel_mean            =   3.1402172069713E-09
(PID.TID 0000.0001) %MON dynstat_wvel_sd              =   2.5681345844308E-05
(PID.TID 0000.0001) %MON dynstat_wvel_del2            =   1.3708149916130E-07
(PID.TID 0000.0001) %MON dynstat_theta_max            =   1.2000000000000E+00
(PID.TID 0000.0001) %MON dynstat_theta_min            =  -1.0000000000000E+00
(PID.TID 0000.0001) %MON dynstat_theta_mean           =   5.6547363195457E-01
(PID.TID 0000.0001) %MON dynstat_theta_sd             =   8.4906200557787E-01
(PID.TID 0000.0001) %MON dynstat_theta_del2           =   1.9676850059745E-06
(PID.TID 0000.0001) %MON dynstat_salt_max             =   3.4700000000000E+01
(PID.TID 0000.0001) %MON dynstat_salt_min             =   3.4000000000000E+01
(PID.TID 0000.0001) %MON dynstat_salt_mean            =   3.4498102773604E+01
(PID.TID 0000.0001) %MON dynstat_salt_sd              =   2.7015638838382E-01
(PID.TID 0000.0001) %MON dynstat_salt_del2            =   6.1514949434017E-07
(PID.TID 0000.0001) %MON advcfl_uvel_max              =   2.9698719402786E-04
(PID.TID 0000.0001) %MON advcfl_vvel_max              =   2.8060626712687E-04
(PID.TID 0000.0001) %MON advcfl_wvel_max              =   1.0314746923443E-03
(PID.TID 0000.0001) %MON advcfl_W_hf_max              =   1.0314746923443E-03
(PID.TID 0000.0001) %MON pe_b_mean                    =  -6.8292200301515E-01
(PID.TID 0000.0001) %MON ke_max                       =   4.9367038762946E-06
(PID.TID 0000.0001) %MON ke_mean                      =   6.7143761759870E-09
(PID.TID 0000.0001) %MON ke_vol                       =   4.6182870425958E+12
(PID.TID 0000.0001) // =======================================================
(PID.TID 0000.0001) // End MONITOR dynamic field statistics
(PID.TID 0000.0001) // =======================================================
(PID.TID 0000.0001) // =======================================================
(PID.TID 0000.0001) // Begin OBCS MONITOR field statistics
(PID.TID 0000.0001) // =======================================================
(PID.TID 0000.0001) %MON obc_N_vVel_max               =   5.4065243833121E-06
(PID.TID 0000.0001) %MON obc_N_vVel_min               =   5.4065243833120E-06
(PID.TID 0000.0001) %MON obc_N_vVel_mean              =   5.4065243833121E-06
(PID.TID 0000.0001) %MON obc_N_vVel_sd                =  -9.1119114351544E-25
(PID.TID 0000.0001) %MON obc_N_vVel_Int               =   3.5683060929860E+02
(PID.TID 0000.0001) // =======================================================
(PID.TID 0000.0001) // End OBCS MONITOR field statistics
(PID.TID 0000.0001) // =======================================================
 cg2d: Sum(rhs),rhsMax =   3.01248877783634E+00  4.53053640609414E+02
(PID.TID 0000.0001)      cg2d_init_res =   2.82414240405932E-06
(PID.TID 0000.0001)      cg2d_iters(min,last) =      -1      68
(PID.TID 0000.0001)      cg2d_last_res =   8.89294995690897E-12
(PID.TID 0000.0001) // =======================================================
(PID.TID 0000.0001) // Begin MONITOR dynamic field statistics
(PID.TID 0000.0001) // =======================================================
(PID.TID 0000.0001) %MON time_tsnumber                =                   155
(PID.TID 0000.0001) %MON time_secondsf                =   1.5500000000000E+04
(PID.TID 0000.0001) %MON dynstat_eta_max              =   5.7959707288499E+00
(PID.TID 0000.0001) %MON dynstat_eta_min              =  -1.4177984500385E+01
(PID.TID 0000.0001) %MON dynstat_eta_mean             =  -2.5274426075810E+00
(PID.TID 0000.0001) %MON dynstat_eta_sd               =   4.9421029564171E+00
(PID.TID 0000.0001) %MON dynstat_eta_del2             =   1.9058059969510E-01
(PID.TID 0000.0001) %MON dynstat_uvel_max             =   2.4554506471421E-03
(PID.TID 0000.0001) %MON dynstat_uvel_min             =  -2.9834400053279E-03
(PID.TID 0000.0001) %MON dynstat_uvel_mean            =  -5.0012032241384E-09
(PID.TID 0000.0001) %MON dynstat_uvel_sd              =   7.0967301143759E-05
(PID.TID 0000.0001) %MON dynstat_uvel_del2            =   4.1845098471443E-07
(PID.TID 0000.0001) %MON dynstat_vvel_max             =   2.8174483003482E-03
(PID.TID 0000.0001) %MON dynstat_vvel_min             =  -2.2498845960364E-03
(PID.TID 0000.0001) %MON dynstat_vvel_mean            =   6.3151285701679E-06
(PID.TID 0000.0001) %MON dynstat_vvel_sd              =   9.2107518582361E-05
(PID.TID 0000.0001) %MON dynstat_vvel_del2            =   4.8287101452583E-07
(PID.TID 0000.0001) %MON dynstat_wvel_max             =   2.0687226560812E-04
(PID.TID 0000.0001) %MON dynstat_wvel_min             =  -1.6470493297920E-04
(PID.TID 0000.0001) %MON dynstat_wvel_mean            =   1.4473968100916E-09
(PID.TID 0000.0001) %MON dynstat_wvel_sd              =   2.5642492935702E-05
(PID.TID 0000.0001) %MON dynstat_wvel_del2            =   1.3713826174237E-07
(PID.TID 0000.0001) %MON dynstat_theta_max            =   1.2000000000000E+00
(PID.TID 0000.0001) %MON dynstat_theta_min            =  -1.0000000000000E+00
(PID.TID 0000.0001) %MON dynstat_theta_mean           =   5.6547343221052E-01
(PID.TID 0000.0001) %MON dynstat_theta_sd             =   8.4906196081395E-01
(PID.TID 0000.0001) %MON dynstat_theta_del2           =   1.9571533749070E-06
(PID.TID 0000.0001) %MON dynstat_salt_max             =   3.4700000000000E+01
(PID.TID 0000.0001) %MON dynstat_salt_min             =   3.4000000000000E+01
(PID.TID 0000.0001) %MON dynstat_salt_mean            =   3.4498102694214E+01
(PID.TID 0000.0001) %MON dynstat_salt_sd              =   2.7015637594365E-01
(PID.TID 0000.0001) %MON dynstat_salt_del2            =   6.1181213504645E-07
(PID.TID 0000.0001) %MON advcfl_uvel_max              =   2.9834400053279E-04
(PID.TID 0000.0001) %MON advcfl_vvel_max              =   2.8174483003482E-04
(PID.TID 0000.0001) %MON advcfl_wvel_max              =   1.0343613280406E-03
(PID.TID 0000.0001) %MON advcfl_W_hf_max              =   1.0343613280406E-03
(PID.TID 0000.0001) %MON pe_b_mean                    =  -6.8292286561275E-01
(PID.TID 0000.0001) %MON ke_max                       =   4.9660793867870E-06
(PID.TID 0000.0001) %MON ke_mean                      =   6.7324237658851E-09
(PID.TID 0000.0001) %MON ke_vol                       =   4.6182870176371E+12
(PID.TID 0000.0001) // =======================================================
(PID.TID 0000.0001) // End MONITOR dynamic field statistics
(PID.TID 0000.0001) // =======================================================
(PID.TID 0000.0001) // =======================================================
(PID.TID 0000.0001) // Begin OBCS MONITOR field statistics
(PID.TID 0000.0001) // =======================================================
(PID.TID 0000.0001) %MON obc_N_vVel_max               =   5.6743652045313E-06
(PID.TID 0000.0001) %MON obc_N_vVel_min               =   5.6743652045313E-06
(PID.TID 0000.0001) %MON obc_N_vVel_mean              =   5.6743652045313E-06
(PID.TID 0000.0001) %MON obc_N_vVel_sd                =   8.1188641485629E-13
(PID.TID 0000.0001) %MON obc_N_vVel_Int               =   3.7450810349906E+02
(PID.TID 0000.0001) // =======================================================
(PID.TID 0000.0001) // End OBCS MONITOR field statistics
(PID.TID 0000.0001) // =======================================================
 cg2d: Sum(rhs),rhsMax =   3.01249438162281E+00  4.53053619748619E+02
(PID.TID 0000.0001)      cg2d_init_res =   2.82163409271195E-06
(PID.TID 0000.0001)      cg2d_iters(min,last) =      -1      68
(PID.TID 0000.0001)      cg2d_last_res =   8.94216175123357E-12
(PID.TID 0000.0001) // =======================================================
(PID.TID 0000.0001) // Begin MONITOR dynamic field statistics
(PID.TID 0000.0001) // =======================================================
(PID.TID 0000.0001) %MON time_tsnumber                =                   156
(PID.TID 0000.0001) %MON time_secondsf                =   1.5600000000000E+04
(PID.TID 0000.0001) %MON dynstat_eta_max              =   5.7959622778212E+00
(PID.TID 0000.0001) %MON dynstat_eta_min              =  -1.4177992888092E+01
(PID.TID 0000.0001) %MON dynstat_eta_mean             =  -2.5274471927159E+00
(PID.TID 0000.0001) %MON dynstat_eta_sd               =   4.9421043941008E+00
(PID.TID 0000.0001) %MON dynstat_eta_del2             =   1.9058059946607E-01
(PID.TID 0000.0001) %MON dynstat_uvel_max             =   2.4606097423696E-03
(PID.TID 0000.0001) %MON dynstat_uvel_min             =  -2.9968344863180E-03
(PID.TID 0000.0001) %MON dynstat_uvel_mean            =   4.2570113132618E-09
(PID.TID 0000.0001) %MON dynstat_uvel_sd              =   7.1099109491622E-05
(PID.TID 0000.0001) %MON dynstat_uvel_del2            =   4.1824008680550E-07
(PID.TID 0000.0001) %MON dynstat_vvel_max             =   2.8285854153456E-03
(PID.TID 0000.0001) %MON dynstat_vvel_min             =  -2.2528310998240E-03
(PID.TID 0000.0001) %MON dynstat_vvel_mean            =   6.2237108730589E-06
(PID.TID 0000.0001) %MON dynstat_vvel_sd              =   9.2215321365874E-05
(PID.TID 0000.0001) %MON dynstat_vvel_del2            =   4.8295393307705E-07
(PID.TID 0000.0001) %MON dynstat_wvel_max             =   2.0743756595211E-04
(PID.TID 0000.0001) %MON dynstat_wvel_min             =  -1.7163979262396E-04
(PID.TID 0000.0001) %MON dynstat_wvel_mean            =  -1.6164473744541E-10
(PID.TID 0000.0001) %MON dynstat_wvel_sd              =   2.5637228542723E-05
(PID.TID 0000.0001) %MON dynstat_wvel_del2            =   1.3758727808508E-07
(PID.TID 0000.0001) %MON dynstat_theta_max            =   1.2000000000000E+00
(PID.TID 0000.0001) %MON dynstat_theta_min            =  -1.0000000000000E+00
(PID.TID 0000.0001) %MON dynstat_theta_mean           =   5.6547323255570E-01
(PID.TID 0000.0001) %MON dynstat_theta_sd             =   8.4906191611410E-01
(PID.TID 0000.0001) %MON dynstat_theta_del2           =   1.9465305994368E-06
(PID.TID 0000.0001) %MON dynstat_salt_max             =   3.4700000000000E+01
(PID.TID 0000.0001) %MON dynstat_salt_min             =   3.4000000000000E+01
(PID.TID 0000.0001) %MON dynstat_salt_mean            =   3.4498102614853E+01
(PID.TID 0000.0001) %MON dynstat_salt_sd              =   2.7015636352268E-01
(PID.TID 0000.0001) %MON dynstat_salt_del2            =   6.0844693340168E-07
(PID.TID 0000.0001) %MON advcfl_uvel_max              =   2.9968344863180E-04
(PID.TID 0000.0001) %MON advcfl_vvel_max              =   2.8285854153456E-04
(PID.TID 0000.0001) %MON advcfl_wvel_max              =   1.0371878297605E-03
(PID.TID 0000.0001) %MON advcfl_W_hf_max              =   1.0371878297605E-03
(PID.TID 0000.0001) %MON pe_b_mean                    =  -6.8292369934256E-01
(PID.TID 0000.0001) %MON ke_max                       =   4.9947646861357E-06
(PID.TID 0000.0001) %MON ke_mean                      =   6.7509691888967E-09
(PID.TID 0000.0001) %MON ke_vol                       =   4.6182869909110E+12
(PID.TID 0000.0001) // =======================================================
(PID.TID 0000.0001) // End MONITOR dynamic field statistics
(PID.TID 0000.0001) // =======================================================
(PID.TID 0000.0001) // =======================================================
(PID.TID 0000.0001) // Begin OBCS MONITOR field statistics
(PID.TID 0000.0001) // =======================================================
(PID.TID 0000.0001) %MON obc_N_vVel_max               =   5.7516278404136E-06
(PID.TID 0000.0001) %MON obc_N_vVel_min               =   5.7516278404135E-06
(PID.TID 0000.0001) %MON obc_N_vVel_mean              =   5.7516278404136E-06
(PID.TID 0000.0001) %MON obc_N_vVel_sd                =  -2.5138535803369E-24
(PID.TID 0000.0001) %MON obc_N_vVel_Int               =   3.7960743746730E+02
(PID.TID 0000.0001) // =======================================================
(PID.TID 0000.0001) // End OBCS MONITOR field statistics
(PID.TID 0000.0001) // =======================================================
 cg2d: Sum(rhs),rhsMax =   3.01249984728150E+00  4.53053599385981E+02
(PID.TID 0000.0001)      cg2d_init_res =   2.82652483099187E-06
(PID.TID 0000.0001)      cg2d_iters(min,last) =      -1      67
(PID.TID 0000.0001)      cg2d_last_res =   9.59002110738418E-12
(PID.TID 0000.0001) // =======================================================
(PID.TID 0000.0001) // Begin MONITOR dynamic field statistics
(PID.TID 0000.0001) // =======================================================
(PID.TID 0000.0001) %MON time_tsnumber                =                   157
(PID.TID 0000.0001) %MON time_secondsf                =   1.5700000000000E+04
(PID.TID 0000.0001) %MON dynstat_eta_max              =   5.7959542524979E+00
(PID.TID 0000.0001) %MON dynstat_eta_min              =  -1.4178000449366E+01
(PID.TID 0000.0001) %MON dynstat_eta_mean             =  -2.5274516647419E+00
(PID.TID 0000.0001) %MON dynstat_eta_sd               =   4.9421056410178E+00
(PID.TID 0000.0001) %MON dynstat_eta_del2             =   1.9058059925524E-01
(PID.TID 0000.0001) %MON dynstat_uvel_max             =   2.4655510821958E-03
(PID.TID 0000.0001) %MON dynstat_uvel_min             =  -3.0100571044787E-03
(PID.TID 0000.0001) %MON dynstat_uvel_mean            =   1.2736440624925E-08
(PID.TID 0000.0001) %MON dynstat_uvel_sd              =   7.1229454298869E-05
(PID.TID 0000.0001) %MON dynstat_uvel_del2            =   4.1800589526247E-07
(PID.TID 0000.0001) %MON dynstat_vvel_max             =   2.8394850758806E-03
(PID.TID 0000.0001) %MON dynstat_vvel_min             =  -2.2556817862718E-03
(PID.TID 0000.0001) %MON dynstat_vvel_mean            =   5.9517358321586E-06
(PID.TID 0000.0001) %MON dynstat_vvel_sd              =   9.2338301804026E-05
(PID.TID 0000.0001) %MON dynstat_vvel_del2            =   4.8319760048621E-07
(PID.TID 0000.0001) %MON dynstat_wvel_max             =   2.0799068162873E-04
(PID.TID 0000.0001) %MON dynstat_wvel_min             =  -1.7708734111067E-04
(PID.TID 0000.0001) %MON dynstat_wvel_mean            =  -1.6451476479932E-09
(PID.TID 0000.0001) %MON dynstat_wvel_sd              =   2.5657481330685E-05
(PID.TID 0000.0001) %MON dynstat_wvel_del2            =   1.3830554482881E-07
(PID.TID 0000.0001) %MON dynstat_theta_max            =   1.2000000000000E+00
(PID.TID 0000.0001) %MON dynstat_theta_min            =  -1.0000000000000E+00
(PID.TID 0000.0001) %MON dynstat_theta_mean           =   5.6547303291180E-01
(PID.TID 0000.0001) %MON dynstat_theta_sd             =   8.4906187147442E-01
(PID.TID 0000.0001) %MON dynstat_theta_del2           =   1.9358739931821E-06
(PID.TID 0000.0001) %MON dynstat_salt_max             =   3.4700000000000E+01
(PID.TID 0000.0001) %MON dynstat_salt_min             =   3.4000000000000E+01
(PID.TID 0000.0001) %MON dynstat_salt_mean            =   3.4498102535494E+01
(PID.TID 0000.0001) %MON dynstat_salt_sd              =   2.7015635111950E-01
(PID.TID 0000.0001) %MON dynstat_salt_del2            =   6.0507222746420E-07
(PID.TID 0000.0001) %MON advcfl_uvel_max              =   3.0100571044787E-04
(PID.TID 0000.0001) %MON advcfl_vvel_max              =   2.8394850758806E-04
(PID.TID 0000.0001) %MON advcfl_wvel_max              =   1.0399534081436E-03
(PID.TID 0000.0001) %MON advcfl_W_hf_max              =   1.0399534081436E-03
(PID.TID 0000.0001) %MON pe_b_mean                    =  -6.8292446683135E-01
(PID.TID 0000.0001) %MON ke_max                       =   5.0227692152681E-06
(PID.TID 0000.0001) %MON ke_mean                      =   6.7697671441039E-09
(PID.TID 0000.0001) %MON ke_vol                       =   4.6182869636753E+12
(PID.TID 0000.0001) // =======================================================
(PID.TID 0000.0001) // End MONITOR dynamic field statistics
(PID.TID 0000.0001) // =======================================================
(PID.TID 0000.0001) // =======================================================
(PID.TID 0000.0001) // Begin OBCS MONITOR field statistics
(PID.TID 0000.0001) // =======================================================
(PID.TID 0000.0001) %MON obc_N_vVel_max               =   5.6498826035142E-06
(PID.TID 0000.0001) %MON obc_N_vVel_min               =   5.6498826035142E-06
(PID.TID 0000.0001) %MON obc_N_vVel_mean              =   5.6498826035142E-06
(PID.TID 0000.0001) %MON obc_N_vVel_sd                =  -3.7481621506309E-25
(PID.TID 0000.0001) %MON obc_N_vVel_Int               =   3.7289225183194E+02
(PID.TID 0000.0001) // =======================================================
(PID.TID 0000.0001) // End OBCS MONITOR field statistics
(PID.TID 0000.0001) // =======================================================
 cg2d: Sum(rhs),rhsMax =   3.01250495754930E+00  4.53053579741514E+02
(PID.TID 0000.0001)      cg2d_init_res =   2.83643097289228E-06
(PID.TID 0000.0001)      cg2d_iters(min,last) =      -1      67
(PID.TID 0000.0001)      cg2d_last_res =   9.35172677027343E-12
(PID.TID 0000.0001) // =======================================================
(PID.TID 0000.0001) // Begin MONITOR dynamic field statistics
(PID.TID 0000.0001) // =======================================================
(PID.TID 0000.0001) %MON time_tsnumber                =                   158
(PID.TID 0000.0001) %MON time_secondsf                =   1.5800000000000E+04
(PID.TID 0000.0001) %MON dynstat_eta_max              =   5.7959469227617E+00
(PID.TID 0000.0001) %MON dynstat_eta_min              =  -1.4178006859731E+01
(PID.TID 0000.0001) %MON dynstat_eta_mean             =  -2.5274558426051E+00
(PID.TID 0000.0001) %MON dynstat_eta_sd               =   4.9421066553573E+00
(PID.TID 0000.0001) %MON dynstat_eta_del2             =   1.9058059906323E-01
(PID.TID 0000.0001) %MON dynstat_uvel_max             =   2.4702764346429E-03
(PID.TID 0000.0001) %MON dynstat_uvel_min             =  -3.0231096042732E-03
(PID.TID 0000.0001) %MON dynstat_uvel_mean            =   2.0238264958167E-08
(PID.TID 0000.0001) %MON dynstat_uvel_sd              =   7.1358393606815E-05
(PID.TID 0000.0001) %MON dynstat_uvel_del2            =   4.1774898349095E-07
(PID.TID 0000.0001) %MON dynstat_vvel_max             =   2.8501600777444E-03
(PID.TID 0000.0001) %MON dynstat_vvel_min             =  -2.2584207338259E-03
(PID.TID 0000.0001) %MON dynstat_vvel_mean            =   5.5204392837479E-06
(PID.TID 0000.0001) %MON dynstat_vvel_sd              =   9.2470154132441E-05
(PID.TID 0000.0001) %MON dynstat_vvel_del2            =   4.8349915618956E-07
(PID.TID 0000.0001) %MON dynstat_wvel_max             =   2.0853133726636E-04
(PID.TID 0000.0001) %MON dynstat_wvel_min             =  -1.7887793750217E-04
(PID.TID 0000.0001) %MON dynstat_wvel_mean            =  -2.9681316724855E-09
(PID.TID 0000.0001) %MON dynstat_wvel_sd              =   2.5692144713469E-05
(PID.TID 0000.0001) %MON dynstat_wvel_del2            =   1.3914018838403E-07
(PID.TID 0000.0001) %MON dynstat_theta_max            =   1.2000000000000E+00
(PID.TID 0000.0001) %MON dynstat_theta_min            =  -1.0000000000000E+00
(PID.TID 0000.0001) %MON dynstat_theta_mean           =   5.6547283320568E-01
(PID.TID 0000.0001) %MON dynstat_theta_sd             =   8.4906182693354E-01
(PID.TID 0000.0001) %MON dynstat_theta_del2           =   1.9252531207951E-06
(PID.TID 0000.0001) %MON dynstat_salt_max             =   3.4700000000000E+01
(PID.TID 0000.0001) %MON dynstat_salt_min             =   3.4000000000000E+01
(PID.TID 0000.0001) %MON dynstat_salt_mean            =   3.4498102456115E+01
(PID.TID 0000.0001) %MON dynstat_salt_sd              =   2.7015633874642E-01
(PID.TID 0000.0001) %MON dynstat_salt_del2            =   6.0171059464531E-07
(PID.TID 0000.0001) %MON advcfl_uvel_max              =   3.0231096042732E-04
(PID.TID 0000.0001) %MON advcfl_vvel_max              =   2.8501600777444E-04
(PID.TID 0000.0001) %MON advcfl_wvel_max              =   1.0426566863318E-03
(PID.TID 0000.0001) %MON advcfl_W_hf_max              =   1.0426566863318E-03
(PID.TID 0000.0001) %MON pe_b_mean                    =  -6.8292513539623E-01
(PID.TID 0000.0001) %MON ke_max                       =   5.0501048888158E-06
(PID.TID 0000.0001) %MON ke_mean                      =   6.7885069249181E-09
(PID.TID 0000.0001) %MON ke_vol                       =   4.6182869371114E+12
(PID.TID 0000.0001) // =======================================================
(PID.TID 0000.0001) // End MONITOR dynamic field statistics
(PID.TID 0000.0001) // =======================================================
(PID.TID 0000.0001) // =======================================================
(PID.TID 0000.0001) // Begin OBCS MONITOR field statistics
(PID.TID 0000.0001) // =======================================================
(PID.TID 0000.0001) %MON obc_N_vVel_max               =   5.3851872512836E-06
(PID.TID 0000.0001) %MON obc_N_vVel_min               =   5.3851872512833E-06
(PID.TID 0000.0001) %MON obc_N_vVel_mean              =   5.3851872512836E-06
(PID.TID 0000.0001) %MON obc_N_vVel_sd                =  -1.6026624368215E-24
(PID.TID 0000.0001) %MON obc_N_vVel_Int               =   3.5542235858472E+02
(PID.TID 0000.0001) // =======================================================
(PID.TID 0000.0001) // End OBCS MONITOR field statistics
(PID.TID 0000.0001) // =======================================================
 cg2d: Sum(rhs),rhsMax =   3.01250952150241E+00  4.53053561004178E+02
(PID.TID 0000.0001)      cg2d_init_res =   2.84814912063871E-06
(PID.TID 0000.0001)      cg2d_iters(min,last) =      -1      67
(PID.TID 0000.0001)      cg2d_last_res =   8.97928927768061E-12
(PID.TID 0000.0001) // =======================================================
(PID.TID 0000.0001) // Begin MONITOR dynamic field statistics
(PID.TID 0000.0001) // =======================================================
(PID.TID 0000.0001) %MON time_tsnumber                =                   159
(PID.TID 0000.0001) %MON time_secondsf                =   1.5900000000000E+04
(PID.TID 0000.0001) %MON dynstat_eta_max              =   5.7959405216158E+00
(PID.TID 0000.0001) %MON dynstat_eta_min              =  -1.4178011854806E+01
(PID.TID 0000.0001) %MON dynstat_eta_mean             =  -2.5274595671771E+00
(PID.TID 0000.0001) %MON dynstat_eta_sd               =   4.9421074053209E+00
(PID.TID 0000.0001) %MON dynstat_eta_del2             =   1.9058059889175E-01
(PID.TID 0000.0001) %MON dynstat_uvel_max             =   2.4747878166078E-03
(PID.TID 0000.0001) %MON dynstat_uvel_min             =  -3.0359937506126E-03
(PID.TID 0000.0001) %MON dynstat_uvel_mean            =   2.6605850580959E-08
(PID.TID 0000.0001) %MON dynstat_uvel_sd              =   7.1485989468336E-05
(PID.TID 0000.0001) %MON dynstat_uvel_del2            =   4.1746993880769E-07
(PID.TID 0000.0001) %MON dynstat_vvel_max             =   2.8606245587817E-03
(PID.TID 0000.0001) %MON dynstat_vvel_min             =  -2.2610301135835E-03
(PID.TID 0000.0001) %MON dynstat_vvel_mean            =   4.9542578679171E-06
(PID.TID 0000.0001) %MON dynstat_vvel_sd              =   9.2603606875684E-05
(PID.TID 0000.0001) %MON dynstat_vvel_del2            =   4.8375102285404E-07
(PID.TID 0000.0001) %MON dynstat_wvel_max             =   2.0905930543847E-04
(PID.TID 0000.0001) %MON dynstat_wvel_min             =  -1.7696982496827E-04
(PID.TID 0000.0001) %MON dynstat_wvel_mean            =  -4.1027607398372E-09
(PID.TID 0000.0001) %MON dynstat_wvel_sd              =   2.5728710659229E-05
(PID.TID 0000.0001) %MON dynstat_wvel_del2            =   1.3993129569563E-07
(PID.TID 0000.0001) %MON dynstat_theta_max            =   1.2000000000000E+00
(PID.TID 0000.0001) %MON dynstat_theta_min            =  -1.0000000000000E+00
(PID.TID 0000.0001) %MON dynstat_theta_mean           =   5.6547263337125E-01
(PID.TID 0000.0001) %MON dynstat_theta_sd             =   8.4906178254248E-01
(PID.TID 0000.0001) %MON dynstat_theta_del2           =   1.9147412325031E-06
(PID.TID 0000.0001) %MON dynstat_salt_max             =   3.4700000000000E+01
(PID.TID 0000.0001) %MON dynstat_salt_min             =   3.4000000000000E+01
(PID.TID 0000.0001) %MON dynstat_salt_mean            =   3.4498102376695E+01
(PID.TID 0000.0001) %MON dynstat_salt_sd              =   2.7015632641949E-01
(PID.TID 0000.0001) %MON dynstat_salt_del2            =   5.9838554588261E-07
(PID.TID 0000.0001) %MON advcfl_uvel_max              =   3.0359937506126E-04
(PID.TID 0000.0001) %MON advcfl_vvel_max              =   2.8606245587817E-04
(PID.TID 0000.0001) %MON advcfl_wvel_max              =   1.0452965271924E-03
(PID.TID 0000.0001) %MON advcfl_W_hf_max              =   1.0452965271924E-03
(PID.TID 0000.0001) %MON pe_b_mean                    =  -6.8292567767986E-01
(PID.TID 0000.0001) %MON ke_max                       =   5.0767852340408E-06
(PID.TID 0000.0001) %MON ke_mean                      =   6.8068477406650E-09
(PID.TID 0000.0001) %MON ke_vol                       =   4.6182869122949E+12
(PID.TID 0000.0001) // =======================================================
(PID.TID 0000.0001) // End MONITOR dynamic field statistics
(PID.TID 0000.0001) // =======================================================
(PID.TID 0000.0001) // =======================================================
(PID.TID 0000.0001) // Begin OBCS MONITOR field statistics
(PID.TID 0000.0001) // =======================================================
(PID.TID 0000.0001) %MON obc_N_vVel_max               =   4.9772745501999E-06
(PID.TID 0000.0001) %MON obc_N_vVel_min               =   4.9772745501998E-06
(PID.TID 0000.0001) %MON obc_N_vVel_mean              =   4.9772745501998E-06
(PID.TID 0000.0001) %MON obc_N_vVel_sd                =   1.1649434288710E-12
(PID.TID 0000.0001) %MON obc_N_vVel_Int               =   3.2850012031319E+02
(PID.TID 0000.0001) // =======================================================
(PID.TID 0000.0001) // End OBCS MONITOR field statistics
(PID.TID 0000.0001) // =======================================================
 cg2d: Sum(rhs),rhsMax =   3.01251337836207E+00  4.53053543327231E+02
(PID.TID 0000.0001)      cg2d_init_res =   2.85858599797731E-06
(PID.TID 0000.0001)      cg2d_iters(min,last) =      -1      66
(PID.TID 0000.0001)      cg2d_last_res =   9.66783895662286E-12
(PID.TID 0000.0001) // =======================================================
(PID.TID 0000.0001) // Begin MONITOR dynamic field statistics
(PID.TID 0000.0001) // =======================================================
(PID.TID 0000.0001) %MON time_tsnumber                =                   160
(PID.TID 0000.0001) %MON time_secondsf                =   1.6000000000000E+04
(PID.TID 0000.0001) %MON dynstat_eta_max              =   5.7959352374548E+00
(PID.TID 0000.0001) %MON dynstat_eta_min              =  -1.4178015229867E+01
(PID.TID 0000.0001) %MON dynstat_eta_mean             =  -2.5274627044215E+00
(PID.TID 0000.0001) %MON dynstat_eta_sd               =   4.9421078692877E+00
(PID.TID 0000.0001) %MON dynstat_eta_del2             =   1.9058059874171E-01
(PID.TID 0000.0001) %MON dynstat_uvel_max             =   2.4790874729490E-03
(PID.TID 0000.0001) %MON dynstat_uvel_min             =  -3.0487112726481E-03
(PID.TID 0000.0001) %MON dynstat_uvel_mean            =   3.1727070508175E-08
(PID.TID 0000.0001) %MON dynstat_uvel_sd              =   7.1612308393461E-05
(PID.TID 0000.0001) %MON dynstat_uvel_del2            =   4.1716936337386E-07
(PID.TID 0000.0001) %MON dynstat_vvel_max             =   2.8708934324833E-03
(PID.TID 0000.0001) %MON dynstat_vvel_min             =  -2.2634908893497E-03
(PID.TID 0000.0001) %MON dynstat_vvel_mean            =   4.2798733040025E-06
(PID.TID 0000.0001) %MON dynstat_vvel_sd              =   9.2731404994617E-05
(PID.TID 0000.0001) %MON dynstat_vvel_del2            =   4.8385469600213E-07
(PID.TID 0000.0001) %MON dynstat_wvel_max             =   2.0957427410169E-04
(PID.TID 0000.0001) %MON dynstat_wvel_min             =  -1.7140252393159E-04
(PID.TID 0000.0001) %MON dynstat_wvel_mean            =  -5.0290286255697E-09
(PID.TID 0000.0001) %MON dynstat_wvel_sd              =   2.5754977737207E-05
(PID.TID 0000.0001) %MON dynstat_wvel_del2            =   1.4053306638845E-07
(PID.TID 0000.0001) %MON dynstat_theta_max            =   1.2000000000000E+00
(PID.TID 0000.0001) %MON dynstat_theta_min            =  -1.0000000000000E+00
(PID.TID 0000.0001) %MON dynstat_theta_mean           =   5.6547243335082E-01
(PID.TID 0000.0001) %MON dynstat_theta_sd             =   8.4906173822894E-01
(PID.TID 0000.0001) %MON dynstat_theta_del2           =   1.9044055474939E-06
(PID.TID 0000.0001) %MON dynstat_salt_max             =   3.4700000000000E+01
(PID.TID 0000.0001) %MON dynstat_salt_min             =   3.4000000000000E+01
(PID.TID 0000.0001) %MON dynstat_salt_mean            =   3.4498102297215E+01
(PID.TID 0000.0001) %MON dynstat_salt_sd              =   2.7015631411554E-01
(PID.TID 0000.0001) %MON dynstat_salt_del2            =   5.9511887966705E-07
(PID.TID 0000.0001) %MON advcfl_uvel_max              =   3.0487112726481E-04
(PID.TID 0000.0001) %MON advcfl_vvel_max              =   2.8708934324833E-04
(PID.TID 0000.0001) %MON advcfl_wvel_max              =   1.0478713705084E-03
(PID.TID 0000.0001) %MON advcfl_W_hf_max              =   1.0478713705084E-03
(PID.TID 0000.0001) %MON pe_b_mean                    =  -6.8292607207676E-01
(PID.TID 0000.0001) %MON ke_max                       =   5.1028251850826E-06
(PID.TID 0000.0001) %MON ke_mean                      =   6.8244625689437E-09
(PID.TID 0000.0001) %MON ke_vol                       =   4.6182868901710E+12
(PID.TID 0000.0001) // =======================================================
(PID.TID 0000.0001) // End MONITOR dynamic field statistics
(PID.TID 0000.0001) // =======================================================
(PID.TID 0000.0001) // =======================================================
(PID.TID 0000.0001) // Begin OBCS MONITOR field statistics
(PID.TID 0000.0001) // =======================================================
(PID.TID 0000.0001) %MON obc_N_vVel_max               =   4.4487275083529E-06
(PID.TID 0000.0001) %MON obc_N_vVel_min               =   4.4487275083527E-06
(PID.TID 0000.0001) %MON obc_N_vVel_mean              =   4.4487275083527E-06
(PID.TID 0000.0001) %MON obc_N_vVel_sd                =   1.1923576132292E-12
(PID.TID 0000.0001) %MON obc_N_vVel_Int               =   2.9361601555128E+02
(PID.TID 0000.0001) // =======================================================
(PID.TID 0000.0001) // End OBCS MONITOR field statistics
(PID.TID 0000.0001) // =======================================================
 cg2d: Sum(rhs),rhsMax =   3.01251640006953E+00  4.53053526826864E+02
(PID.TID 0000.0001)      cg2d_init_res =   2.86490482603385E-06
(PID.TID 0000.0001)      cg2d_iters(min,last) =      -1      65
(PID.TID 0000.0001)      cg2d_last_res =   9.94220698564348E-12
(PID.TID 0000.0001) // =======================================================
(PID.TID 0000.0001) // Begin MONITOR dynamic field statistics
(PID.TID 0000.0001) // =======================================================
(PID.TID 0000.0001) %MON time_tsnumber                =                   161
(PID.TID 0000.0001) %MON time_secondsf                =   1.6100000000000E+04
(PID.TID 0000.0001) %MON dynstat_eta_max              =   5.7959312097110E+00
(PID.TID 0000.0001) %MON dynstat_eta_min              =  -1.4178016844258E+01
(PID.TID 0000.0001) %MON dynstat_eta_mean             =  -2.5274651475468E+00
(PID.TID 0000.0001) %MON dynstat_eta_sd               =   4.9421080357240E+00
(PID.TID 0000.0001) %MON dynstat_eta_del2             =   1.9058059861230E-01
(PID.TID 0000.0001) %MON dynstat_uvel_max             =   2.4831778278891E-03
(PID.TID 0000.0001) %MON dynstat_uvel_min             =  -3.0612638636638E-03
(PID.TID 0000.0001) %MON dynstat_uvel_mean            =   3.5535593402622E-08
(PID.TID 0000.0001) %MON dynstat_uvel_sd              =   7.1737420752335E-05
(PID.TID 0000.0001) %MON dynstat_uvel_del2            =   4.1684786822033E-07
(PID.TID 0000.0001) %MON dynstat_vvel_max             =   2.8809818996143E-03
(PID.TID 0000.0001) %MON dynstat_vvel_min             =  -2.2657835601834E-03
(PID.TID 0000.0001) %MON dynstat_vvel_mean            =   3.5252527621386E-06
(PID.TID 0000.0001) %MON dynstat_vvel_sd              =   9.2847243727452E-05
(PID.TID 0000.0001) %MON dynstat_vvel_del2            =   4.8373261850365E-07
(PID.TID 0000.0001) %MON dynstat_wvel_max             =   2.1007593398645E-04
(PID.TID 0000.0001) %MON dynstat_wvel_min             =  -1.6229652109102E-04
(PID.TID 0000.0001) %MON dynstat_wvel_mean            =  -5.7345136135126E-09
(PID.TID 0000.0001) %MON dynstat_wvel_sd              =   2.5760596263531E-05
(PID.TID 0000.0001) %MON dynstat_wvel_del2            =   1.4083068758332E-07
(PID.TID 0000.0001) %MON dynstat_theta_max            =   1.2000000000000E+00
(PID.TID 0000.0001) %MON dynstat_theta_min            =  -1.0000000000000E+00
(PID.TID 0000.0001) %MON dynstat_theta_mean           =   5.6547223309618E-01
(PID.TID 0000.0001) %MON dynstat_theta_sd             =   8.4906169400351E-01
(PID.TID 0000.0001) %MON dynstat_theta_del2           =   1.8942974419254E-06
(PID.TID 0000.0001) %MON dynstat_salt_max             =   3.4700000000000E+01
(PID.TID 0000.0001) %MON dynstat_salt_min             =   3.4000000000000E+01
(PID.TID 0000.0001) %MON dynstat_salt_mean            =   3.4498102217660E+01
(PID.TID 0000.0001) %MON dynstat_salt_sd              =   2.7015630183790E-01
(PID.TID 0000.0001) %MON dynstat_salt_del2            =   5.9192736328929E-07
(PID.TID 0000.0001) %MON advcfl_uvel_max              =   3.0612638636638E-04
(PID.TID 0000.0001) %MON advcfl_vvel_max              =   2.8809818996143E-04
(PID.TID 0000.0001) %MON advcfl_wvel_max              =   1.0503796699322E-03
(PID.TID 0000.0001) %MON advcfl_W_hf_max              =   1.0503796699322E-03
(PID.TID 0000.0001) %MON pe_b_mean                    =  -6.8292630295769E-01
(PID.TID 0000.0001) %MON ke_max                       =   5.1282404711150E-06
(PID.TID 0000.0001) %MON ke_mean                      =   6.8410833856984E-09
(PID.TID 0000.0001) %MON ke_vol                       =   4.6182868715357E+12
(PID.TID 0000.0001) // =======================================================
(PID.TID 0000.0001) // End MONITOR dynamic field statistics
(PID.TID 0000.0001) // =======================================================
(PID.TID 0000.0001) // =======================================================
(PID.TID 0000.0001) // Begin OBCS MONITOR field statistics
(PID.TID 0000.0001) // =======================================================
(PID.TID 0000.0001) %MON obc_N_vVel_max               =   3.8240676804298E-06
(PID.TID 0000.0001) %MON obc_N_vVel_min               =   3.8240676804297E-06
(PID.TID 0000.0001) %MON obc_N_vVel_mean              =   3.8240676804298E-06
(PID.TID 0000.0001) %MON obc_N_vVel_sd                =  -1.0081263715490E-24
(PID.TID 0000.0001) %MON obc_N_vVel_Int               =   2.5238846690837E+02
(PID.TID 0000.0001) // =======================================================
(PID.TID 0000.0001) // End OBCS MONITOR field statistics
(PID.TID 0000.0001) // =======================================================
 cg2d: Sum(rhs),rhsMax =   3.01251849274166E+00  4.53053511577193E+02
(PID.TID 0000.0001)      cg2d_init_res =   2.86482517120655E-06
(PID.TID 0000.0001)      cg2d_iters(min,last) =      -1      66
(PID.TID 0000.0001)      cg2d_last_res =   8.61856654734210E-12
(PID.TID 0000.0001) // =======================================================
(PID.TID 0000.0001) // Begin MONITOR dynamic field statistics
(PID.TID 0000.0001) // =======================================================
(PID.TID 0000.0001) %MON time_tsnumber                =                   162
(PID.TID 0000.0001) %MON time_secondsf                =   1.6200000000000E+04
(PID.TID 0000.0001) %MON dynstat_eta_max              =   5.7959285307148E+00
(PID.TID 0000.0001) %MON dynstat_eta_min              =  -1.4178016619152E+01
(PID.TID 0000.0001) %MON dynstat_eta_mean             =  -2.5274668181997E+00
(PID.TID 0000.0001) %MON dynstat_eta_sd               =   4.9421079027791E+00
(PID.TID 0000.0001) %MON dynstat_eta_del2             =   1.9058059849916E-01
(PID.TID 0000.0001) %MON dynstat_uvel_max             =   2.4870614048940E-03
(PID.TID 0000.0001) %MON dynstat_uvel_min             =  -3.0736531279989E-03
(PID.TID 0000.0001) %MON dynstat_uvel_mean            =   3.8011309781016E-08
(PID.TID 0000.0001) %MON dynstat_uvel_sd              =   7.1861400603820E-05
(PID.TID 0000.0001) %MON dynstat_uvel_del2            =   4.1650606937723E-07
(PID.TID 0000.0001) %MON dynstat_vvel_max             =   2.8909051686403E-03
(PID.TID 0000.0001) %MON dynstat_vvel_min             =  -2.2678887655427E-03
(PID.TID 0000.0001) %MON dynstat_vvel_mean            =   2.7187177901349E-06
(PID.TID 0000.0001) %MON dynstat_vvel_sd              =   9.2946537345027E-05
(PID.TID 0000.0001) %MON dynstat_vvel_del2            =   4.8333681754499E-07
(PID.TID 0000.0001) %MON dynstat_wvel_max             =   2.1056396293250E-04
(PID.TID 0000.0001) %MON dynstat_wvel_min             =  -1.4985119719914E-04
(PID.TID 0000.0001) %MON dynstat_wvel_mean            =  -6.2141032937542E-09
(PID.TID 0000.0001) %MON dynstat_wvel_sd              =   2.5738268423925E-05
(PID.TID 0000.0001) %MON dynstat_wvel_del2            =   1.4075175535175E-07
(PID.TID 0000.0001) %MON dynstat_theta_max            =   1.2000000000000E+00
(PID.TID 0000.0001) %MON dynstat_theta_min            =  -1.0000000000000E+00
(PID.TID 0000.0001) %MON dynstat_theta_mean           =   5.6547203256945E-01
(PID.TID 0000.0001) %MON dynstat_theta_sd             =   8.4906164989014E-01
(PID.TID 0000.0001) %MON dynstat_theta_del2           =   1.8844480875796E-06
(PID.TID 0000.0001) %MON dynstat_salt_max             =   3.4700000000000E+01
(PID.TID 0000.0001) %MON dynstat_salt_min             =   3.4000000000000E+01
(PID.TID 0000.0001) %MON dynstat_salt_mean            =   3.4498102138018E+01
(PID.TID 0000.0001) %MON dynstat_salt_sd              =   2.7015628959399E-01
(PID.TID 0000.0001) %MON dynstat_salt_del2            =   5.8882097494591E-07
(PID.TID 0000.0001) %MON advcfl_uvel_max              =   3.0736531279989E-04
(PID.TID 0000.0001) %MON advcfl_vvel_max              =   2.8909051686403E-04
(PID.TID 0000.0001) %MON advcfl_wvel_max              =   1.0528198146625E-03
(PID.TID 0000.0001) %MON advcfl_W_hf_max              =   1.0528198146625E-03
(PID.TID 0000.0001) %MON pe_b_mean                    =  -6.8292636070399E-01
(PID.TID 0000.0001) %MON ke_max                       =   5.1530469695361E-06
(PID.TID 0000.0001) %MON ke_mean                      =   6.8565409480172E-09
(PID.TID 0000.0001) %MON ke_vol                       =   4.6182868570236E+12
(PID.TID 0000.0001) // =======================================================
(PID.TID 0000.0001) // End MONITOR dynamic field statistics
(PID.TID 0000.0001) // =======================================================
(PID.TID 0000.0001) // =======================================================
(PID.TID 0000.0001) // Begin OBCS MONITOR field statistics
(PID.TID 0000.0001) // =======================================================
(PID.TID 0000.0001) %MON obc_N_vVel_max               =   3.1288896160669E-06
(PID.TID 0000.0001) %MON obc_N_vVel_min               =   3.1288896160668E-06
(PID.TID 0000.0001) %MON obc_N_vVel_mean              =   3.1288896160668E-06
(PID.TID 0000.0001) %MON obc_N_vVel_sd                =   7.0196444057890E-13
(PID.TID 0000.0001) %MON obc_N_vVel_Int               =   2.0650671466041E+02
(PID.TID 0000.0001) // =======================================================
(PID.TID 0000.0001) // End OBCS MONITOR field statistics
(PID.TID 0000.0001) // =======================================================
 cg2d: Sum(rhs),rhsMax =   3.01251959699331E+00  4.53053497614144E+02
(PID.TID 0000.0001)      cg2d_init_res =   2.85727506605829E-06
(PID.TID 0000.0001)      cg2d_iters(min,last) =      -1      66
(PID.TID 0000.0001)      cg2d_last_res =   9.90052884285202E-12
(PID.TID 0000.0001) // =======================================================
(PID.TID 0000.0001) // Begin MONITOR dynamic field statistics
(PID.TID 0000.0001) // =======================================================
(PID.TID 0000.0001) %MON time_tsnumber                =                   163
(PID.TID 0000.0001) %MON time_secondsf                =   1.6300000000000E+04
(PID.TID 0000.0001) %MON dynstat_eta_max              =   5.7959272489202E+00
(PID.TID 0000.0001) %MON dynstat_eta_min              =  -1.4178014534694E+01
(PID.TID 0000.0001) %MON dynstat_eta_mean             =  -2.5274676667573E+00
(PID.TID 0000.0001) %MON dynstat_eta_sd               =   4.9421074776791E+00
(PID.TID 0000.0001) %MON dynstat_eta_del2             =   1.9058059840267E-01
(PID.TID 0000.0001) %MON dynstat_uvel_max             =   2.4907408378745E-03
(PID.TID 0000.0001) %MON dynstat_uvel_min             =  -3.0858806075704E-03
(PID.TID 0000.0001) %MON dynstat_uvel_mean            =   3.9174891979680E-08
(PID.TID 0000.0001) %MON dynstat_uvel_sd              =   7.1984325387497E-05
(PID.TID 0000.0001) %MON dynstat_uvel_del2            =   4.1614458523961E-07
(PID.TID 0000.0001) %MON dynstat_vvel_max             =   2.9006777467249E-03
(PID.TID 0000.0001) %MON dynstat_vvel_min             =  -2.2697880039644E-03
(PID.TID 0000.0001) %MON dynstat_vvel_mean            =   1.8880765467824E-06
(PID.TID 0000.0001) %MON dynstat_vvel_sd              =   9.3026932051015E-05
(PID.TID 0000.0001) %MON dynstat_vvel_del2            =   4.8265348849793E-07
(PID.TID 0000.0001) %MON dynstat_wvel_max             =   2.1103806986762E-04
(PID.TID 0000.0001) %MON dynstat_wvel_min             =  -1.3434067810264E-04
(PID.TID 0000.0001) %MON dynstat_wvel_mean            =  -6.4701505453812E-09
(PID.TID 0000.0001) %MON dynstat_wvel_sd              =   2.5684502509368E-05
(PID.TID 0000.0001) %MON dynstat_wvel_del2            =   1.4027211222557E-07
(PID.TID 0000.0001) %MON dynstat_theta_max            =   1.2000000000000E+00
(PID.TID 0000.0001) %MON dynstat_theta_min            =  -1.0000000000000E+00
(PID.TID 0000.0001) %MON dynstat_theta_mean           =   5.6547183174348E-01
(PID.TID 0000.0001) %MON dynstat_theta_sd             =   8.4906160589189E-01
(PID.TID 0000.0001) %MON dynstat_theta_del2           =   1.8748658262485E-06
(PID.TID 0000.0001) %MON dynstat_salt_max             =   3.4700000000000E+01
(PID.TID 0000.0001) %MON dynstat_salt_min             =   3.4000000000000E+01
(PID.TID 0000.0001) %MON dynstat_salt_mean            =   3.4498102058280E+01
(PID.TID 0000.0001) %MON dynstat_salt_sd              =   2.7015627738487E-01
(PID.TID 0000.0001) %MON dynstat_salt_del2            =   5.8580244780785E-07
(PID.TID 0000.0001) %MON advcfl_uvel_max              =   3.0858806075704E-04
(PID.TID 0000.0001) %MON advcfl_vvel_max              =   2.9006777467249E-04
(PID.TID 0000.0001) %MON advcfl_wvel_max              =   1.0551903493381E-03
(PID.TID 0000.0001) %MON advcfl_W_hf_max              =   1.0551903493381E-03
(PID.TID 0000.0001) %MON pe_b_mean                    =  -6.8292624155241E-01
(PID.TID 0000.0001) %MON ke_max                       =   5.1772604082835E-06
(PID.TID 0000.0001) %MON ke_mean                      =   6.8707926467549E-09
(PID.TID 0000.0001) %MON ke_vol                       =   4.6182868470999E+12
(PID.TID 0000.0001) // =======================================================
(PID.TID 0000.0001) // End MONITOR dynamic field statistics
(PID.TID 0000.0001) // =======================================================
(PID.TID 0000.0001) // =======================================================
(PID.TID 0000.0001) // Begin OBCS MONITOR field statistics
(PID.TID 0000.0001) // =======================================================
(PID.TID 0000.0001) %MON obc_N_vVel_max               =   2.3890496245789E-06
(PID.TID 0000.0001) %MON obc_N_vVel_min               =   2.3890496245788E-06
(PID.TID 0000.0001) %MON obc_N_vVel_mean              =   2.3890496245789E-06
(PID.TID 0000.0001) %MON obc_N_vVel_sd                =   3.1134422755779E-13
(PID.TID 0000.0001) %MON obc_N_vVel_Int               =   1.5767727522220E+02
(PID.TID 0000.0001) // =======================================================
(PID.TID 0000.0001) // End OBCS MONITOR field statistics
(PID.TID 0000.0001) // =======================================================
 cg2d: Sum(rhs),rhsMax =   3.01251968714469E+00  4.53053484936690E+02
(PID.TID 0000.0001)      cg2d_init_res =   2.84173319645053E-06
(PID.TID 0000.0001)      cg2d_iters(min,last) =      -1      67
(PID.TID 0000.0001)      cg2d_last_res =   7.88159508699477E-12
(PID.TID 0000.0001) // =======================================================
(PID.TID 0000.0001) // Begin MONITOR dynamic field statistics
(PID.TID 0000.0001) // =======================================================
(PID.TID 0000.0001) %MON time_tsnumber                =                   164
(PID.TID 0000.0001) %MON time_secondsf                =   1.6400000000000E+04
(PID.TID 0000.0001) %MON dynstat_eta_max              =   5.7959273640519E+00
(PID.TID 0000.0001) %MON dynstat_eta_min              =  -1.4178010629935E+01
(PID.TID 0000.0001) %MON dynstat_eta_mean             =  -2.5274676716691E+00
(PID.TID 0000.0001) %MON dynstat_eta_sd               =   4.9421067757892E+00
(PID.TID 0000.0001) %MON dynstat_eta_del2             =   1.9058059831719E-01
(PID.TID 0000.0001) %MON dynstat_uvel_max             =   2.4942187774890E-03
(PID.TID 0000.0001) %MON dynstat_uvel_min             =  -3.0979477326134E-03
(PID.TID 0000.0001) %MON dynstat_uvel_mean            =   3.9084839780996E-08
(PID.TID 0000.0001) %MON dynstat_uvel_sd              =   7.2106275053734E-05
(PID.TID 0000.0001) %MON dynstat_uvel_del2            =   4.1576403111300E-07
(PID.TID 0000.0001) %MON dynstat_vvel_max             =   2.9103133951986E-03
(PID.TID 0000.0001) %MON dynstat_vvel_min             =  -2.2714640674621E-03
(PID.TID 0000.0001) %MON dynstat_vvel_mean            =   1.0598294009574E-06
(PID.TID 0000.0001) %MON dynstat_vvel_sd              =   9.3088513279348E-05
(PID.TID 0000.0001) %MON dynstat_vvel_del2            =   4.8170324617085E-07
(PID.TID 0000.0001) %MON dynstat_wvel_max             =   2.1149797108098E-04
(PID.TID 0000.0001) %MON dynstat_wvel_min             =  -1.1610809106568E-04
(PID.TID 0000.0001) %MON dynstat_wvel_mean            =  -6.5110332221103E-09
(PID.TID 0000.0001) %MON dynstat_wvel_sd              =   2.5599877261398E-05
(PID.TID 0000.0001) %MON dynstat_wvel_del2            =   1.3941646041869E-07
(PID.TID 0000.0001) %MON dynstat_theta_max            =   1.2000000000000E+00
(PID.TID 0000.0001) %MON dynstat_theta_min            =  -1.0000000000000E+00
(PID.TID 0000.0001) %MON dynstat_theta_mean           =   5.6547163060161E-01
(PID.TID 0000.0001) %MON dynstat_theta_sd             =   8.4906156199238E-01
(PID.TID 0000.0001) %MON dynstat_theta_del2           =   1.8655322595943E-06
(PID.TID 0000.0001) %MON dynstat_salt_max             =   3.4700000000000E+01
(PID.TID 0000.0001) %MON dynstat_salt_min             =   3.4000000000000E+01
(PID.TID 0000.0001) %MON dynstat_salt_mean            =   3.4498101978441E+01
(PID.TID 0000.0001) %MON dynstat_salt_sd              =   2.7015626520510E-01
(PID.TID 0000.0001) %MON dynstat_salt_del2            =   5.8286597054744E-07
(PID.TID 0000.0001) %MON advcfl_uvel_max              =   3.0979477326134E-04
(PID.TID 0000.0001) %MON advcfl_vvel_max              =   2.9103133951986E-04
(PID.TID 0000.0001) %MON advcfl_wvel_max              =   1.0574898554049E-03
(PID.TID 0000.0001) %MON advcfl_W_hf_max              =   1.0574898554049E-03
(PID.TID 0000.0001) %MON pe_b_mean                    =  -6.8292594728470E-01
(PID.TID 0000.0001) %MON ke_max                       =   5.2008958435034E-06
(PID.TID 0000.0001) %MON ke_mean                      =   6.8839339516145E-09
(PID.TID 0000.0001) %MON ke_vol                       =   4.6182868420595E+12
(PID.TID 0000.0001) // =======================================================
(PID.TID 0000.0001) // End MONITOR dynamic field statistics
(PID.TID 0000.0001) // =======================================================
(PID.TID 0000.0001) // =======================================================
(PID.TID 0000.0001) // Begin OBCS MONITOR field statistics
(PID.TID 0000.0001) // =======================================================
(PID.TID 0000.0001) %MON obc_N_vVel_max               =   1.6298155854538E-06
(PID.TID 0000.0001) %MON obc_N_vVel_min               =   1.6298155854538E-06
(PID.TID 0000.0001) %MON obc_N_vVel_mean              =   1.6298155854538E-06
(PID.TID 0000.0001) %MON obc_N_vVel_sd                =  -7.7144285643373E-26
(PID.TID 0000.0001) %MON obc_N_vVel_Int               =   1.0756782863995E+02
(PID.TID 0000.0001) // =======================================================
(PID.TID 0000.0001) // End OBCS MONITOR field statistics
(PID.TID 0000.0001) // =======================================================
 cg2d: Sum(rhs),rhsMax =   3.01251876960495E+00  4.53053473505396E+02
(PID.TID 0000.0001)      cg2d_init_res =   2.81888883634040E-06
(PID.TID 0000.0001)      cg2d_iters(min,last) =      -1      67
(PID.TID 0000.0001)      cg2d_last_res =   9.82844371600165E-12
(PID.TID 0000.0001) // =======================================================
(PID.TID 0000.0001) // Begin MONITOR dynamic field statistics
(PID.TID 0000.0001) // =======================================================
(PID.TID 0000.0001) %MON time_tsnumber                =                   165
(PID.TID 0000.0001) %MON time_secondsf                =   1.6500000000000E+04
(PID.TID 0000.0001) %MON dynstat_eta_max              =   5.7959288385365E+00
(PID.TID 0000.0001) %MON dynstat_eta_min              =  -1.4178004991540E+01
(PID.TID 0000.0001) %MON dynstat_eta_mean             =  -2.5274668380921E+00
(PID.TID 0000.0001) %MON dynstat_eta_sd               =   4.9421058196437E+00
(PID.TID 0000.0001) %MON dynstat_eta_del2             =   1.9058059824146E-01
(PID.TID 0000.0001) %MON dynstat_uvel_max             =   2.4974978331382E-03
(PID.TID 0000.0001) %MON dynstat_uvel_min             =  -3.1098558259584E-03
(PID.TID 0000.0001) %MON dynstat_uvel_mean            =   3.7833005372780E-08
(PID.TID 0000.0001) %MON dynstat_uvel_sd              =   7.2227331083954E-05
(PID.TID 0000.0001) %MON dynstat_uvel_del2            =   4.1536501031359E-07
(PID.TID 0000.0001) %MON dynstat_vvel_max             =   2.9198246187230E-03
(PID.TID 0000.0001) %MON dynstat_vvel_min             =  -2.2729014109171E-03
(PID.TID 0000.0001) %MON dynstat_vvel_mean            =   2.5847971000110E-07
(PID.TID 0000.0001) %MON dynstat_vvel_sd              =   9.3133695160382E-05
(PID.TID 0000.0001) %MON dynstat_vvel_del2            =   4.8053718899141E-07
(PID.TID 0000.0001) %MON dynstat_wvel_max             =   2.1194343255321E-04
(PID.TID 0000.0001) %MON dynstat_wvel_min             =  -1.2941918305712E-04
(PID.TID 0000.0001) %MON dynstat_wvel_mean            =  -6.3513426235737E-09
(PID.TID 0000.0001) %MON dynstat_wvel_sd              =   2.5488821840880E-05
(PID.TID 0000.0001) %MON dynstat_wvel_del2            =   1.3825411245957E-07
(PID.TID 0000.0001) %MON dynstat_theta_max            =   1.2000000000000E+00
(PID.TID 0000.0001) %MON dynstat_theta_min            =  -1.0000000000000E+00
(PID.TID 0000.0001) %MON dynstat_theta_mean           =   5.6547142913746E-01
(PID.TID 0000.0001) %MON dynstat_theta_sd             =   8.4906151822987E-01
(PID.TID 0000.0001) %MON dynstat_theta_del2           =   1.8564090824371E-06
(PID.TID 0000.0001) %MON dynstat_salt_max             =   3.4700000000000E+01
(PID.TID 0000.0001) %MON dynstat_salt_min             =   3.4000000000000E+01
(PID.TID 0000.0001) %MON dynstat_salt_mean            =   3.4498101898499E+01
(PID.TID 0000.0001) %MON dynstat_salt_sd              =   2.7015625306685E-01
(PID.TID 0000.0001) %MON dynstat_salt_del2            =   5.7999889477285E-07
(PID.TID 0000.0001) %MON advcfl_uvel_max              =   3.1098558259584E-04
(PID.TID 0000.0001) %MON advcfl_vvel_max              =   2.9198246187230E-04
(PID.TID 0000.0001) %MON advcfl_wvel_max              =   1.0597171627660E-03
(PID.TID 0000.0001) %MON advcfl_W_hf_max              =   1.0597171627660E-03
(PID.TID 0000.0001) %MON pe_b_mean                    =  -6.8292548476670E-01
(PID.TID 0000.0001) %MON ke_max                       =   5.2239674601999E-06
(PID.TID 0000.0001) %MON ke_mean                      =   6.8961912627202E-09
(PID.TID 0000.0001) %MON ke_vol                       =   4.6182868420303E+12
(PID.TID 0000.0001) // =======================================================
(PID.TID 0000.0001) // End MONITOR dynamic field statistics
(PID.TID 0000.0001) // =======================================================
(PID.TID 0000.0001) // =======================================================
(PID.TID 0000.0001) // Begin OBCS MONITOR field statistics
(PID.TID 0000.0001) // =======================================================
(PID.TID 0000.0001) %MON obc_N_vVel_max               =   8.7522525061474E-07
(PID.TID 0000.0001) %MON obc_N_vVel_min               =   8.7522525061471E-07
(PID.TID 0000.0001) %MON obc_N_vVel_mean              =   8.7522525061471E-07
(PID.TID 0000.0001) %MON obc_N_vVel_sd                =   2.2670656297725E-13
(PID.TID 0000.0001) %MON obc_N_vVel_Int               =   5.7764866540571E+01
(PID.TID 0000.0001) // =======================================================
(PID.TID 0000.0001) // End OBCS MONITOR field statistics
(PID.TID 0000.0001) // =======================================================
 cg2d: Sum(rhs),rhsMax =   3.01251688029325E+00  4.53053463249204E+02
(PID.TID 0000.0001)      cg2d_init_res =   2.79062776092602E-06
(PID.TID 0000.0001)      cg2d_iters(min,last) =      -1      69
(PID.TID 0000.0001)      cg2d_last_res =   9.13031548223373E-12
(PID.TID 0000.0001) // =======================================================
(PID.TID 0000.0001) // Begin MONITOR dynamic field statistics
(PID.TID 0000.0001) // =======================================================
(PID.TID 0000.0001) %MON time_tsnumber                =                   166
(PID.TID 0000.0001) %MON time_secondsf                =   1.6600000000000E+04
(PID.TID 0000.0001) %MON dynstat_eta_max              =   5.7959315937392E+00
(PID.TID 0000.0001) %MON dynstat_eta_min              =  -1.4177997754077E+01
(PID.TID 0000.0001) %MON dynstat_eta_mean             =  -2.5274651957658E+00
(PID.TID 0000.0001) %MON dynstat_eta_sd               =   4.9421046376626E+00
(PID.TID 0000.0001) %MON dynstat_eta_del2             =   1.9058059817055E-01
(PID.TID 0000.0001) %MON dynstat_uvel_max             =   2.5005805819038E-03
(PID.TID 0000.0001) %MON dynstat_uvel_min             =  -3.1216060646095E-03
(PID.TID 0000.0001) %MON dynstat_uvel_mean            =   3.5545255711646E-08
(PID.TID 0000.0001) %MON dynstat_uvel_sd              =   7.2347576442613E-05
(PID.TID 0000.0001) %MON dynstat_uvel_del2            =   4.1494811434344E-07
(PID.TID 0000.0001) %MON dynstat_vvel_max             =   2.9292224248749E-03
(PID.TID 0000.0001) %MON dynstat_vvel_min             =  -2.2740867774882E-03
(PID.TID 0000.0001) %MON dynstat_vvel_mean            =  -4.9406614989479E-07
(PID.TID 0000.0001) %MON dynstat_vvel_sd              =   9.3166814417984E-05
(PID.TID 0000.0001) %MON dynstat_vvel_del2            =   4.7922936985825E-07
(PID.TID 0000.0001) %MON dynstat_wvel_max             =   2.1237426337686E-04
(PID.TID 0000.0001) %MON dynstat_wvel_min             =  -1.4054038632464E-04
(PID.TID 0000.0001) %MON dynstat_wvel_mean            =  -6.0103334654701E-09
(PID.TID 0000.0001) %MON dynstat_wvel_sd              =   2.5358947793699E-05
(PID.TID 0000.0001) %MON dynstat_wvel_del2            =   1.3689027520815E-07
(PID.TID 0000.0001) %MON dynstat_theta_max            =   1.2000000000000E+00
(PID.TID 0000.0001) %MON dynstat_theta_min            =  -1.0000000000000E+00
(PID.TID 0000.0001) %MON dynstat_theta_mean           =   5.6547122735456E-01
(PID.TID 0000.0001) %MON dynstat_theta_sd             =   8.4906147464260E-01
(PID.TID 0000.0001) %MON dynstat_theta_del2           =   1.8474417604706E-06
(PID.TID 0000.0001) %MON dynstat_salt_max             =   3.4700000000000E+01
(PID.TID 0000.0001) %MON dynstat_salt_min             =   3.4000000000000E+01
(PID.TID 0000.0001) %MON dynstat_salt_mean            =   3.4498101818456E+01
(PID.TID 0000.0001) %MON dynstat_salt_sd              =   2.7015624098244E-01
(PID.TID 0000.0001) %MON dynstat_salt_del2            =   5.7718361056629E-07
(PID.TID 0000.0001) %MON advcfl_uvel_max              =   3.1216060646095E-04
(PID.TID 0000.0001) %MON advcfl_vvel_max              =   2.9292224248749E-04
(PID.TID 0000.0001) %MON advcfl_wvel_max              =   1.0618713168843E-03
(PID.TID 0000.0001) %MON advcfl_W_hf_max              =   1.0618713168843E-03
(PID.TID 0000.0001) %MON pe_b_mean                    =  -6.8292486537476E-01
(PID.TID 0000.0001) %MON ke_max                       =   5.2464885820658E-06
(PID.TID 0000.0001) %MON ke_mean                      =   6.9078962829693E-09
(PID.TID 0000.0001) %MON ke_vol                       =   4.6182868469817E+12
(PID.TID 0000.0001) // =======================================================
(PID.TID 0000.0001) // End MONITOR dynamic field statistics
(PID.TID 0000.0001) // =======================================================
(PID.TID 0000.0001) // =======================================================
(PID.TID 0000.0001) // Begin OBCS MONITOR field statistics
(PID.TID 0000.0001) // =======================================================
(PID.TID 0000.0001) %MON obc_N_vVel_max               =   1.4740224152939E-07
(PID.TID 0000.0001) %MON obc_N_vVel_min               =   1.4740224152939E-07
(PID.TID 0000.0001) %MON obc_N_vVel_mean              =   1.4740224152939E-07
(PID.TID 0000.0001) %MON obc_N_vVel_sd                =   1.7038216254096E-14
(PID.TID 0000.0001) %MON obc_N_vVel_Int               =   9.7285479409395E+00
(PID.TID 0000.0001) // =======================================================
(PID.TID 0000.0001) // End OBCS MONITOR field statistics
(PID.TID 0000.0001) // =======================================================
 cg2d: Sum(rhs),rhsMax =   3.01251408146291E+00  4.53053454065113E+02
(PID.TID 0000.0001)      cg2d_init_res =   2.75936963730237E-06
(PID.TID 0000.0001)      cg2d_iters(min,last) =      -1      69
(PID.TID 0000.0001)      cg2d_last_res =   9.33121227463680E-12
(PID.TID 0000.0001) // =======================================================
(PID.TID 0000.0001) // Begin MONITOR dynamic field statistics
(PID.TID 0000.0001) // =======================================================
(PID.TID 0000.0001) %MON time_tsnumber                =                   167
(PID.TID 0000.0001) %MON time_secondsf                =   1.6700000000000E+04
(PID.TID 0000.0001) %MON dynstat_eta_max              =   5.7959355211462E+00
(PID.TID 0000.0001) %MON dynstat_eta_min              =  -1.4177989088491E+01
(PID.TID 0000.0001) %MON dynstat_eta_mean             =  -2.5274627963455E+00
(PID.TID 0000.0001) %MON dynstat_eta_sd               =   4.9421032628948E+00
(PID.TID 0000.0001) %MON dynstat_eta_del2             =   1.9058059809840E-01
(PID.TID 0000.0001) %MON dynstat_uvel_max             =   2.5034694642088E-03
(PID.TID 0000.0001) %MON dynstat_uvel_min             =  -3.1331995991826E-03
(PID.TID 0000.0001) %MON dynstat_uvel_mean            =   3.2367054789039E-08
(PID.TID 0000.0001) %MON dynstat_uvel_sd              =   7.2467094332860E-05
(PID.TID 0000.0001) %MON dynstat_uvel_del2            =   4.1451391689560E-07
(PID.TID 0000.0001) %MON dynstat_vvel_max             =   2.9385161889328E-03
(PID.TID 0000.0001) %MON dynstat_vvel_min             =  -2.2750092976977E-03
(PID.TID 0000.0001) %MON dynstat_vvel_mean            =  -1.1789535602534E-06
(PID.TID 0000.0001) %MON dynstat_vvel_sd              =   9.3193493579846E-05
(PID.TID 0000.0001) %MON dynstat_vvel_del2            =   4.7786663757751E-07
(PID.TID 0000.0001) %MON dynstat_wvel_max             =   2.1279031989636E-04
(PID.TID 0000.0001) %MON dynstat_wvel_min             =  -1.4885796772825E-04
(PID.TID 0000.0001) %MON dynstat_wvel_mean            =  -5.5113872630117E-09
(PID.TID 0000.0001) %MON dynstat_wvel_sd              =   2.5220014252021E-05
(PID.TID 0000.0001) %MON dynstat_wvel_del2            =   1.3545333444092E-07
(PID.TID 0000.0001) %MON dynstat_theta_max            =   1.2000000000000E+00
(PID.TID 0000.0001) %MON dynstat_theta_min            =  -1.0000000000000E+00
(PID.TID 0000.0001) %MON dynstat_theta_mean           =   5.6547102526560E-01
(PID.TID 0000.0001) %MON dynstat_theta_sd             =   8.4906143126129E-01
(PID.TID 0000.0001) %MON dynstat_theta_del2           =   1.8385676702145E-06
(PID.TID 0000.0001) %MON dynstat_salt_max             =   3.4700000000000E+01
(PID.TID 0000.0001) %MON dynstat_salt_min             =   3.4000000000000E+01
(PID.TID 0000.0001) %MON dynstat_salt_mean            =   3.4498101738314E+01
(PID.TID 0000.0001) %MON dynstat_salt_sd              =   2.7015622896148E-01
(PID.TID 0000.0001) %MON dynstat_salt_del2            =   5.7439981067891E-07
(PID.TID 0000.0001) %MON advcfl_uvel_max              =   3.1331995991826E-04
(PID.TID 0000.0001) %MON advcfl_vvel_max              =   2.9385161889328E-04
(PID.TID 0000.0001) %MON advcfl_wvel_max              =   1.0639515994818E-03
(PID.TID 0000.0001) %MON advcfl_W_hf_max              =   1.0639515994818E-03
(PID.TID 0000.0001) %MON pe_b_mean                    =  -6.8292410432719E-01
(PID.TID 0000.0001) %MON ke_max                       =   5.2684708550612E-06
(PID.TID 0000.0001) %MON ke_mean                      =   6.9194453150301E-09
(PID.TID 0000.0001) %MON ke_vol                       =   4.6182868567372E+12
(PID.TID 0000.0001) // =======================================================
(PID.TID 0000.0001) // End MONITOR dynamic field statistics
(PID.TID 0000.0001) // =======================================================
(PID.TID 0000.0001) // =======================================================
(PID.TID 0000.0001) // Begin OBCS MONITOR field statistics
(PID.TID 0000.0001) // =======================================================
(PID.TID 0000.0001) %MON obc_N_vVel_max               =  -5.3393016752425E-07
(PID.TID 0000.0001) %MON obc_N_vVel_min               =  -5.3393016752426E-07
(PID.TID 0000.0001) %MON obc_N_vVel_mean              =  -5.3393016752425E-07
(PID.TID 0000.0001) %MON obc_N_vVel_sd                =   1.2429421534347E-13
(PID.TID 0000.0001) %MON obc_N_vVel_Int               =  -3.5239391056600E+01
(PID.TID 0000.0001) // =======================================================
(PID.TID 0000.0001) // End OBCS MONITOR field statistics
(PID.TID 0000.0001) // =======================================================
 cg2d: Sum(rhs),rhsMax =   3.01251045785233E+00  4.53053445833334E+02
(PID.TID 0000.0001)      cg2d_init_res =   2.72788865842800E-06
(PID.TID 0000.0001)      cg2d_iters(min,last) =      -1      69
(PID.TID 0000.0001)      cg2d_last_res =   9.19277502009892E-12
(PID.TID 0000.0001) // =======================================================
(PID.TID 0000.0001) // Begin MONITOR dynamic field statistics
(PID.TID 0000.0001) // =======================================================
(PID.TID 0000.0001) %MON time_tsnumber                =                   168
(PID.TID 0000.0001) %MON time_secondsf                =   1.6800000000000E+04
(PID.TID 0000.0001) %MON dynstat_eta_max              =   5.7959404844990E+00
(PID.TID 0000.0001) %MON dynstat_eta_min              =  -1.4177979195411E+01
(PID.TID 0000.0001) %MON dynstat_eta_mean             =  -2.5274597102573E+00
(PID.TID 0000.0001) %MON dynstat_eta_sd               =   4.9421017317297E+00
(PID.TID 0000.0001) %MON dynstat_eta_del2             =   1.9058059802090E-01
(PID.TID 0000.0001) %MON dynstat_uvel_max             =   2.5061668351789E-03
(PID.TID 0000.0001) %MON dynstat_uvel_min             =  -3.1446373656783E-03
(PID.TID 0000.0001) %MON dynstat_uvel_mean            =   2.8460888953913E-08
(PID.TID 0000.0001) %MON dynstat_uvel_sd              =   7.2585967787873E-05
(PID.TID 0000.0001) %MON dynstat_uvel_del2            =   4.1406296985913E-07
(PID.TID 0000.0001) %MON dynstat_vvel_max             =   2.9477135143159E-03
(PID.TID 0000.0001) %MON dynstat_vvel_min             =  -2.2756608557835E-03
(PID.TID 0000.0001) %MON dynstat_vvel_mean            =  -1.7807280281253E-06
(PID.TID 0000.0001) %MON dynstat_vvel_sd              =   9.3219862832306E-05
(PID.TID 0000.0001) %MON dynstat_vvel_del2            =   4.7653713683822E-07
(PID.TID 0000.0001) %MON dynstat_wvel_max             =   2.1319151378369E-04
(PID.TID 0000.0001) %MON dynstat_wvel_min             =  -1.5469526017075E-04
(PID.TID 0000.0001) %MON dynstat_wvel_mean            =  -4.8809306939157E-09
(PID.TID 0000.0001) %MON dynstat_wvel_sd              =   2.5082639569256E-05
(PID.TID 0000.0001) %MON dynstat_wvel_del2            =   1.3407897104894E-07
(PID.TID 0000.0001) %MON dynstat_theta_max            =   1.2000000000000E+00
(PID.TID 0000.0001) %MON dynstat_theta_min            =  -1.0000000000000E+00
(PID.TID 0000.0001) %MON dynstat_theta_mean           =   5.6547082289132E-01
(PID.TID 0000.0001) %MON dynstat_theta_sd             =   8.4906138807281E-01
(PID.TID 0000.0001) %MON dynstat_theta_del2           =   1.8297224308169E-06
(PID.TID 0000.0001) %MON dynstat_salt_max             =   3.4700000000000E+01
(PID.TID 0000.0001) %MON dynstat_salt_min             =   3.4000000000000E+01
(PID.TID 0000.0001) %MON dynstat_salt_mean            =   3.4498101658081E+01
(PID.TID 0000.0001) %MON dynstat_salt_sd              =   2.7015621699980E-01
(PID.TID 0000.0001) %MON dynstat_salt_del2            =   5.7162671363419E-07
(PID.TID 0000.0001) %MON advcfl_uvel_max              =   3.1446373656783E-04
(PID.TID 0000.0001) %MON advcfl_vvel_max              =   2.9477135143159E-04
(PID.TID 0000.0001) %MON advcfl_wvel_max              =   1.0659575689185E-03
(PID.TID 0000.0001) %MON advcfl_W_hf_max              =   1.0659575689185E-03
(PID.TID 0000.0001) %MON pe_b_mean                    =  -6.8292321994782E-01
(PID.TID 0000.0001) %MON ke_max                       =   5.2899241779504E-06
(PID.TID 0000.0001) %MON ke_mean                      =   6.9312491010991E-09
(PID.TID 0000.0001) %MON ke_vol                       =   4.6182868709897E+12
(PID.TID 0000.0001) // =======================================================
(PID.TID 0000.0001) // End MONITOR dynamic field statistics
(PID.TID 0000.0001) // =======================================================
(PID.TID 0000.0001) // =======================================================
(PID.TID 0000.0001) // Begin OBCS MONITOR field statistics
(PID.TID 0000.0001) // =======================================================
(PID.TID 0000.0001) %MON obc_N_vVel_max               =  -1.1518787698285E-06
(PID.TID 0000.0001) %MON obc_N_vVel_min               =  -1.1518787698285E-06
(PID.TID 0000.0001) %MON obc_N_vVel_mean              =  -1.1518787698285E-06
(PID.TID 0000.0001) %MON obc_N_vVel_sd                =  -1.8781200431502E-26
(PID.TID 0000.0001) %MON obc_N_vVel_Int               =  -7.6023998808679E+01
(PID.TID 0000.0001) // =======================================================
(PID.TID 0000.0001) // End OBCS MONITOR field statistics
(PID.TID 0000.0001) // =======================================================
 cg2d: Sum(rhs),rhsMax =   3.01250611260589E+00  4.53053438406561E+02
(PID.TID 0000.0001)      cg2d_init_res =   2.69926219293112E-06
(PID.TID 0000.0001)      cg2d_iters(min,last) =      -1      69
(PID.TID 0000.0001)      cg2d_last_res =   9.07042066516156E-12
(PID.TID 0000.0001) // =======================================================
(PID.TID 0000.0001) // Begin MONITOR dynamic field statistics
(PID.TID 0000.0001) // =======================================================
(PID.TID 0000.0001) %MON time_tsnumber                =                   169
(PID.TID 0000.0001) %MON time_secondsf                =   1.6900000000000E+04
(PID.TID 0000.0001) %MON dynstat_eta_max              =   5.7959463272066E+00
(PID.TID 0000.0001) %MON dynstat_eta_min              =  -1.4177968297279E+01
(PID.TID 0000.0001) %MON dynstat_eta_mean             =  -2.5274560232165E+00
(PID.TID 0000.0001) %MON dynstat_eta_sd               =   4.9421000825327E+00
(PID.TID 0000.0001) %MON dynstat_eta_del2             =   1.9058059793327E-01
(PID.TID 0000.0001) %MON dynstat_uvel_max             =   2.5086748642185E-03
(PID.TID 0000.0001) %MON dynstat_uvel_min             =  -3.1559202352744E-03
(PID.TID 0000.0001) %MON dynstat_uvel_mean            =   2.3999013978332E-08
(PID.TID 0000.0001) %MON dynstat_uvel_sd              =   7.2704279088691E-05
(PID.TID 0000.0001) %MON dynstat_uvel_del2            =   4.1359580272435E-07
(PID.TID 0000.0001) %MON dynstat_vvel_max             =   2.9568201299028E-03
(PID.TID 0000.0001) %MON dynstat_vvel_min             =  -2.2760360686647E-03
(PID.TID 0000.0001) %MON dynstat_vvel_mean            =  -2.2875455155459E-06
(PID.TID 0000.0001) %MON dynstat_vvel_sd              =   9.3251743622832E-05
(PID.TID 0000.0001) %MON dynstat_vvel_del2            =   4.7531891092296E-07
(PID.TID 0000.0001) %MON dynstat_wvel_max             =   2.1357780831185E-04
(PID.TID 0000.0001) %MON dynstat_wvel_min             =  -1.6205394846828E-04
(PID.TID 0000.0001) %MON dynstat_wvel_mean            =  -4.1473171305961E-09
(PID.TID 0000.0001) %MON dynstat_wvel_sd              =   2.4956904447514E-05
(PID.TID 0000.0001) %MON dynstat_wvel_del2            =   1.3289254563037E-07
(PID.TID 0000.0001) %MON dynstat_theta_max            =   1.2000000000000E+00
(PID.TID 0000.0001) %MON dynstat_theta_min            =  -1.0000000000000E+00
(PID.TID 0000.0001) %MON dynstat_theta_mean           =   5.6547062025939E-01
(PID.TID 0000.0001) %MON dynstat_theta_sd             =   8.4906134501436E-01
(PID.TID 0000.0001) %MON dynstat_theta_del2           =   1.8208537009705E-06
(PID.TID 0000.0001) %MON dynstat_salt_max             =   3.4700000000000E+01
(PID.TID 0000.0001) %MON dynstat_salt_min             =   3.4000000000000E+01
(PID.TID 0000.0001) %MON dynstat_salt_mean            =   3.4498101577766E+01
(PID.TID 0000.0001) %MON dynstat_salt_sd              =   2.7015620507755E-01
(PID.TID 0000.0001) %MON dynstat_salt_del2            =   5.6884746020994E-07
(PID.TID 0000.0001) %MON advcfl_uvel_max              =   3.1559202352744E-04
(PID.TID 0000.0001) %MON advcfl_vvel_max              =   2.9568201299028E-04
(PID.TID 0000.0001) %MON advcfl_wvel_max              =   1.0678890415592E-03
(PID.TID 0000.0001) %MON advcfl_W_hf_max              =   1.0678890415592E-03
(PID.TID 0000.0001) %MON pe_b_mean                    =  -6.8292223289238E-01
(PID.TID 0000.0001) %MON ke_max                       =   5.3108565223813E-06
(PID.TID 0000.0001) %MON ke_mean                      =   6.9436799015435E-09
(PID.TID 0000.0001) %MON ke_vol                       =   4.6182868893211E+12
(PID.TID 0000.0001) // =======================================================
(PID.TID 0000.0001) // End MONITOR dynamic field statistics
(PID.TID 0000.0001) // =======================================================
(PID.TID 0000.0001) // =======================================================
(PID.TID 0000.0001) // Begin OBCS MONITOR field statistics
(PID.TID 0000.0001) // =======================================================
(PID.TID 0000.0001) %MON obc_N_vVel_max               =  -1.6926847270123E-06
(PID.TID 0000.0001) %MON obc_N_vVel_min               =  -1.6926847270123E-06
(PID.TID 0000.0001) %MON obc_N_vVel_mean              =  -1.6926847270123E-06
(PID.TID 0000.0001) %MON obc_N_vVel_sd                =  -4.1197471914262E-26
(PID.TID 0000.0001) %MON obc_N_vVel_Int               =  -1.1171719198281E+02
(PID.TID 0000.0001) // =======================================================
(PID.TID 0000.0001) // End OBCS MONITOR field statistics
(PID.TID 0000.0001) // =======================================================
 cg2d: Sum(rhs),rhsMax =   3.01250116277579E+00  4.53053431627514E+02
(PID.TID 0000.0001)      cg2d_init_res =   2.67621173576212E-06
(PID.TID 0000.0001)      cg2d_iters(min,last) =      -1      69
(PID.TID 0000.0001)      cg2d_last_res =   9.07610588511600E-12
(PID.TID 0000.0001) // =======================================================
(PID.TID 0000.0001) // Begin MONITOR dynamic field statistics
(PID.TID 0000.0001) // =======================================================
(PID.TID 0000.0001) %MON time_tsnumber                =                   170
(PID.TID 0000.0001) %MON time_secondsf                =   1.7000000000000E+04
(PID.TID 0000.0001) %MON dynstat_eta_max              =   5.7959528782748E+00
(PID.TID 0000.0001) %MON dynstat_eta_min              =  -1.4177956629837E+01
(PID.TID 0000.0001) %MON dynstat_eta_mean             =  -2.5274518325508E+00
(PID.TID 0000.0001) %MON dynstat_eta_sd               =   4.9420983543614E+00
(PID.TID 0000.0001) %MON dynstat_eta_del2             =   1.9058059783071E-01
(PID.TID 0000.0001) %MON dynstat_uvel_max             =   2.5109955486773E-03
(PID.TID 0000.0001) %MON dynstat_uvel_min             =  -3.1670489740374E-03
(PID.TID 0000.0001) %MON dynstat_uvel_mean            =   1.9157331294910E-08
(PID.TID 0000.0001) %MON dynstat_uvel_sd              =   7.2822109215726E-05
(PID.TID 0000.0001) %MON dynstat_uvel_del2            =   4.1311291949605E-07
(PID.TID 0000.0001) %MON dynstat_vvel_max             =   2.9658399076533E-03
(PID.TID 0000.0001) %MON dynstat_vvel_min             =  -2.2761323253508E-03
(PID.TID 0000.0001) %MON dynstat_vvel_mean            =  -2.6912648484312E-06
(PID.TID 0000.0001) %MON dynstat_vvel_sd              =   9.3293903447867E-05
(PID.TID 0000.0001) %MON dynstat_vvel_del2            =   4.7427010637230E-07
(PID.TID 0000.0001) %MON dynstat_wvel_max             =   2.1394922237402E-04
(PID.TID 0000.0001) %MON dynstat_wvel_min             =  -1.6617077409836E-04
(PID.TID 0000.0001) %MON dynstat_wvel_mean            =  -3.3399263067645E-09
(PID.TID 0000.0001) %MON dynstat_wvel_sd              =   2.4851032784281E-05
(PID.TID 0000.0001) %MON dynstat_wvel_del2            =   1.3199205438100E-07
(PID.TID 0000.0001) %MON dynstat_theta_max            =   1.2000000000000E+00
(PID.TID 0000.0001) %MON dynstat_theta_min            =  -1.0000000000000E+00
(PID.TID 0000.0001) %MON dynstat_theta_mean           =   5.6547041740295E-01
(PID.TID 0000.0001) %MON dynstat_theta_sd             =   8.4906130205988E-01
(PID.TID 0000.0001) %MON dynstat_theta_del2           =   1.8119226792415E-06
(PID.TID 0000.0001) %MON dynstat_salt_max             =   3.4700000000000E+01
(PID.TID 0000.0001) %MON dynstat_salt_min             =   3.4000000000000E+01
(PID.TID 0000.0001) %MON dynstat_salt_mean            =   3.4498101497379E+01
(PID.TID 0000.0001) %MON dynstat_salt_sd              =   2.7015619318628E-01
(PID.TID 0000.0001) %MON dynstat_salt_del2            =   5.6604953674745E-07
(PID.TID 0000.0001) %MON advcfl_uvel_max              =   3.1670489740374E-04
(PID.TID 0000.0001) %MON advcfl_vvel_max              =   2.9658399076533E-04
(PID.TID 0000.0001) %MON advcfl_wvel_max              =   1.0697461118701E-03
(PID.TID 0000.0001) %MON advcfl_W_hf_max              =   1.0697461118701E-03
(PID.TID 0000.0001) %MON pe_b_mean                    =  -6.8292116536082E-01
(PID.TID 0000.0001) %MON ke_max                       =   5.3312739118207E-06
(PID.TID 0000.0001) %MON ke_mean                      =   6.9570233365698E-09
(PID.TID 0000.0001) %MON ke_vol                       =   4.6182869112221E+12
(PID.TID 0000.0001) // =======================================================
(PID.TID 0000.0001) // End MONITOR dynamic field statistics
(PID.TID 0000.0001) // =======================================================
(PID.TID 0000.0001) // =======================================================
(PID.TID 0000.0001) // Begin OBCS MONITOR field statistics
(PID.TID 0000.0001) // =======================================================
(PID.TID 0000.0001) %MON obc_N_vVel_max               =  -2.1458964761382E-06
(PID.TID 0000.0001) %MON obc_N_vVel_min               =  -2.1458964761382E-06
(PID.TID 0000.0001) %MON obc_N_vVel_mean              =  -2.1458964761382E-06
(PID.TID 0000.0001) %MON obc_N_vVel_sd                =  -2.4233807008389E-26
(PID.TID 0000.0001) %MON obc_N_vVel_Int               =  -1.4162916742512E+02
(PID.TID 0000.0001) // =======================================================
(PID.TID 0000.0001) // End OBCS MONITOR field statistics
(PID.TID 0000.0001) // =======================================================
 cg2d: Sum(rhs),rhsMax =   3.01249573483500E+00  4.53053425330839E+02
(PID.TID 0000.0001)      cg2d_init_res =   2.66077365148027E-06
(PID.TID 0000.0001)      cg2d_iters(min,last) =      -1      69
(PID.TID 0000.0001)      cg2d_last_res =   9.19191084508470E-12
(PID.TID 0000.0001) // =======================================================
(PID.TID 0000.0001) // Begin MONITOR dynamic field statistics
(PID.TID 0000.0001) // =======================================================
(PID.TID 0000.0001) %MON time_tsnumber                =                   171
(PID.TID 0000.0001) %MON time_secondsf                =   1.7100000000000E+04
(PID.TID 0000.0001) %MON dynstat_eta_max              =   5.7959599585058E+00
(PID.TID 0000.0001) %MON dynstat_eta_min              =  -1.4177944434135E+01
(PID.TID 0000.0001) %MON dynstat_eta_mean             =  -2.5274472434473E+00
(PID.TID 0000.0001) %MON dynstat_eta_sd               =   4.9420965857492E+00
(PID.TID 0000.0001) %MON dynstat_eta_del2             =   1.9058059770884E-01
(PID.TID 0000.0001) %MON dynstat_uvel_max             =   2.5131306961494E-03
(PID.TID 0000.0001) %MON dynstat_uvel_min             =  -3.1780242574542E-03
(PID.TID 0000.0001) %MON dynstat_uvel_mean            =   1.4109664483532E-08
(PID.TID 0000.0001) %MON dynstat_uvel_sd              =   7.2939537556088E-05
(PID.TID 0000.0001) %MON dynstat_uvel_del2            =   4.1261479891141E-07
(PID.TID 0000.0001) %MON dynstat_vvel_max             =   2.9747749102569E-03
(PID.TID 0000.0001) %MON dynstat_vvel_min             =  -2.2759497246927E-03
(PID.TID 0000.0001) %MON dynstat_vvel_mean            =  -2.9874213924630E-06
(PID.TID 0000.0001) %MON dynstat_vvel_sd              =   9.3349474819152E-05
(PID.TID 0000.0001) %MON dynstat_vvel_del2            =   4.7342204033078E-07
(PID.TID 0000.0001) %MON dynstat_wvel_max             =   2.1430582792922E-04
(PID.TID 0000.0001) %MON dynstat_wvel_min             =  -1.6694976435141E-04
(PID.TID 0000.0001) %MON dynstat_wvel_mean            =  -2.4882296665438E-09
(PID.TID 0000.0001) %MON dynstat_wvel_sd              =   2.4770327208621E-05
(PID.TID 0000.0001) %MON dynstat_wvel_del2            =   1.3143441831073E-07
(PID.TID 0000.0001) %MON dynstat_theta_max            =   1.2000000000000E+00
(PID.TID 0000.0001) %MON dynstat_theta_min            =  -1.0000000000000E+00
(PID.TID 0000.0001) %MON dynstat_theta_mean           =   5.6547021435916E-01
(PID.TID 0000.0001) %MON dynstat_theta_sd             =   8.4906125920808E-01
(PID.TID 0000.0001) %MON dynstat_theta_del2           =   1.8029100923993E-06
(PID.TID 0000.0001) %MON dynstat_salt_max             =   3.4700000000000E+01
(PID.TID 0000.0001) %MON dynstat_salt_min             =   3.4000000000000E+01
(PID.TID 0000.0001) %MON dynstat_salt_mean            =   3.4498101416931E+01
(PID.TID 0000.0001) %MON dynstat_salt_sd              =   2.7015618132563E-01
(PID.TID 0000.0001) %MON dynstat_salt_del2            =   5.6322681034776E-07
(PID.TID 0000.0001) %MON advcfl_uvel_max              =   3.1780242574542E-04
(PID.TID 0000.0001) %MON advcfl_vvel_max              =   2.9747749102569E-04
(PID.TID 0000.0001) %MON advcfl_wvel_max              =   1.0715291396461E-03
(PID.TID 0000.0001) %MON advcfl_W_hf_max              =   1.0715291396461E-03
(PID.TID 0000.0001) %MON pe_b_mean                    =  -6.8292004032073E-01
(PID.TID 0000.0001) %MON ke_max                       =   5.3511804518098E-06
(PID.TID 0000.0001) %MON ke_mean                      =   6.9714413989330E-09
(PID.TID 0000.0001) %MON ke_vol                       =   4.6182869361146E+12
(PID.TID 0000.0001) // =======================================================
(PID.TID 0000.0001) // End MONITOR dynamic field statistics
(PID.TID 0000.0001) // =======================================================
(PID.TID 0000.0001) // =======================================================
(PID.TID 0000.0001) // Begin OBCS MONITOR field statistics
(PID.TID 0000.0001) // =======================================================
(PID.TID 0000.0001) %MON obc_N_vVel_max               =  -2.5044407575753E-06
(PID.TID 0000.0001) %MON obc_N_vVel_min               =  -2.5044407575753E-06
(PID.TID 0000.0001) %MON obc_N_vVel_mean              =  -2.5044407575753E-06
(PID.TID 0000.0001) %MON obc_N_vVel_sd                =  -1.6640547479094E-25
(PID.TID 0000.0001) %MON obc_N_vVel_Int               =  -1.6529308999997E+02
(PID.TID 0000.0001) // =======================================================
(PID.TID 0000.0001) // End OBCS MONITOR field statistics
(PID.TID 0000.0001) // =======================================================
 cg2d: Sum(rhs),rhsMax =   3.01248996017585E+00  4.53053419353562E+02
(PID.TID 0000.0001)      cg2d_init_res =   2.65396092490006E-06
(PID.TID 0000.0001)      cg2d_iters(min,last) =      -1      69
(PID.TID 0000.0001)      cg2d_last_res =   9.37405940211043E-12
(PID.TID 0000.0001) // =======================================================
(PID.TID 0000.0001) // Begin MONITOR dynamic field statistics
(PID.TID 0000.0001) // =======================================================
(PID.TID 0000.0001) %MON time_tsnumber                =                   172
(PID.TID 0000.0001) %MON time_secondsf                =   1.7200000000000E+04
(PID.TID 0000.0001) %MON dynstat_eta_max              =   5.7959673865082E+00
(PID.TID 0000.0001) %MON dynstat_eta_min              =  -1.4177931948975E+01
(PID.TID 0000.0001) %MON dynstat_eta_mean             =  -2.5274423652332E+00
(PID.TID 0000.0001) %MON dynstat_eta_sd               =   4.9420948135915E+00
(PID.TID 0000.0001) %MON dynstat_eta_del2             =   1.9058059756374E-01
(PID.TID 0000.0001) %MON dynstat_uvel_max             =   2.5150819191957E-03
(PID.TID 0000.0001) %MON dynstat_uvel_min             =  -3.1888466824921E-03
(PID.TID 0000.0001) %MON dynstat_uvel_mean            =   9.0225330869389E-09
(PID.TID 0000.0001) %MON dynstat_uvel_sd              =   7.3056641738176E-05
(PID.TID 0000.0001) %MON dynstat_uvel_del2            =   4.1210189581040E-07
(PID.TID 0000.0001) %MON dynstat_vvel_max             =   2.9836254888815E-03
(PID.TID 0000.0001) %MON dynstat_vvel_min             =  -2.2754909219653E-03
(PID.TID 0000.0001) %MON dynstat_vvel_mean            =  -3.1750921929521E-06
(PID.TID 0000.0001) %MON dynstat_vvel_sd              =   9.3419612281728E-05
(PID.TID 0000.0001) %MON dynstat_vvel_del2            =   4.7277604699379E-07
(PID.TID 0000.0001) %MON dynstat_wvel_max             =   2.1464774778083E-04
(PID.TID 0000.0001) %MON dynstat_wvel_min             =  -1.6437090520249E-04
(PID.TID 0000.0001) %MON dynstat_wvel_mean            =  -1.6208692175310E-09
(PID.TID 0000.0001) %MON dynstat_wvel_sd              =   2.4716525889170E-05
(PID.TID 0000.0001) %MON dynstat_wvel_del2            =   1.3122785359851E-07
(PID.TID 0000.0001) %MON dynstat_theta_max            =   1.2000000000000E+00
(PID.TID 0000.0001) %MON dynstat_theta_min            =  -1.0000000000000E+00
(PID.TID 0000.0001) %MON dynstat_theta_mean           =   5.6547001116784E-01
(PID.TID 0000.0001) %MON dynstat_theta_sd             =   8.4906121637506E-01
(PID.TID 0000.0001) %MON dynstat_theta_del2           =   1.7938189869000E-06
(PID.TID 0000.0001) %MON dynstat_salt_max             =   3.4700000000000E+01
(PID.TID 0000.0001) %MON dynstat_salt_min             =   3.4000000000000E+01
(PID.TID 0000.0001) %MON dynstat_salt_mean            =   3.4498101336436E+01
(PID.TID 0000.0001) %MON dynstat_salt_sd              =   2.7015616946891E-01
(PID.TID 0000.0001) %MON dynstat_salt_del2            =   5.6038041216544E-07
(PID.TID 0000.0001) %MON advcfl_uvel_max              =   3.1888466824921E-04
(PID.TID 0000.0001) %MON advcfl_vvel_max              =   2.9836254888815E-04
(PID.TID 0000.0001) %MON advcfl_wvel_max              =   1.0732387389042E-03
(PID.TID 0000.0001) %MON advcfl_W_hf_max              =   1.0732387389042E-03
(PID.TID 0000.0001) %MON pe_b_mean                    =  -6.8291888076472E-01
(PID.TID 0000.0001) %MON ke_max                       =   5.3705784090422E-06
(PID.TID 0000.0001) %MON ke_mean                      =   6.9869519148102E-09
(PID.TID 0000.0001) %MON ke_vol                       =   4.6182869633739E+12
(PID.TID 0000.0001) // =======================================================
(PID.TID 0000.0001) // End MONITOR dynamic field statistics
(PID.TID 0000.0001) // =======================================================
(PID.TID 0000.0001) // =======================================================
(PID.TID 0000.0001) // Begin OBCS MONITOR field statistics
(PID.TID 0000.0001) // =======================================================
(PID.TID 0000.0001) %MON obc_N_vVel_max               =  -2.7645909737956E-06
(PID.TID 0000.0001) %MON obc_N_vVel_min               =  -2.7645909737957E-06
(PID.TID 0000.0001) %MON obc_N_vVel_mean              =  -2.7645909737956E-06
(PID.TID 0000.0001) %MON obc_N_vVel_sd                =   6.0692163128984E-13
(PID.TID 0000.0001) %MON obc_N_vVel_Int               =  -1.8246300427051E+02
(PID.TID 0000.0001) // =======================================================
(PID.TID 0000.0001) // End OBCS MONITOR field statistics
(PID.TID 0000.0001) // =======================================================
 cg2d: Sum(rhs),rhsMax =   3.01248397090895E+00  4.53053413526985E+02
(PID.TID 0000.0001)      cg2d_init_res =   2.65565984786449E-06
(PID.TID 0000.0001)      cg2d_iters(min,last) =      -1      69
(PID.TID 0000.0001)      cg2d_last_res =   9.63979685426523E-12
(PID.TID 0000.0001) // =======================================================
(PID.TID 0000.0001) // Begin MONITOR dynamic field statistics
(PID.TID 0000.0001) // =======================================================
(PID.TID 0000.0001) %MON time_tsnumber                =                   173
(PID.TID 0000.0001) %MON time_secondsf                =   1.7300000000000E+04
(PID.TID 0000.0001) %MON dynstat_eta_max              =   5.7959749843101E+00
(PID.TID 0000.0001) %MON dynstat_eta_min              =  -1.4177919403918E+01
(PID.TID 0000.0001) %MON dynstat_eta_mean             =  -2.5274373078067E+00
(PID.TID 0000.0001) %MON dynstat_eta_sd               =   4.9420930721611E+00
(PID.TID 0000.0001) %MON dynstat_eta_del2             =   1.9058059739212E-01
(PID.TID 0000.0001) %MON dynstat_uvel_max             =   2.5168506357840E-03
(PID.TID 0000.0001) %MON dynstat_uvel_min             =  -3.1995167810810E-03
(PID.TID 0000.0001) %MON dynstat_uvel_mean            =   4.0507597184078E-09
(PID.TID 0000.0001) %MON dynstat_uvel_sd              =   7.3173497441626E-05
(PID.TID 0000.0001) %MON dynstat_uvel_del2            =   4.1157464204458E-07
(PID.TID 0000.0001) %MON dynstat_vvel_max             =   2.9923904254563E-03
(PID.TID 0000.0001) %MON dynstat_vvel_min             =  -2.2747609101987E-03
(PID.TID 0000.0001) %MON dynstat_vvel_mean            =  -3.2566658038334E-06
(PID.TID 0000.0001) %MON dynstat_vvel_sd              =   9.3503422738691E-05
(PID.TID 0000.0001) %MON dynstat_vvel_del2            =   4.7230443916281E-07
(PID.TID 0000.0001) %MON dynstat_wvel_max             =   2.1497515168148E-04
(PID.TID 0000.0001) %MON dynstat_wvel_min             =  -1.5848941713545E-04
(PID.TID 0000.0001) %MON dynstat_wvel_mean            =  -7.6487598634085E-10
(PID.TID 0000.0001) %MON dynstat_wvel_sd              =   2.4687675529516E-05
(PID.TID 0000.0001) %MON dynstat_wvel_del2            =   1.3133197017595E-07
(PID.TID 0000.0001) %MON dynstat_theta_max            =   1.2000000000000E+00
(PID.TID 0000.0001) %MON dynstat_theta_min            =  -1.0000000000000E+00
(PID.TID 0000.0001) %MON dynstat_theta_mean           =   5.6546980787007E-01
(PID.TID 0000.0001) %MON dynstat_theta_sd             =   8.4906117349589E-01
(PID.TID 0000.0001) %MON dynstat_theta_del2           =   1.7846739367409E-06
(PID.TID 0000.0001) %MON dynstat_salt_max             =   3.4700000000000E+01
(PID.TID 0000.0001) %MON dynstat_salt_min             =   3.4000000000000E+01
(PID.TID 0000.0001) %MON dynstat_salt_mean            =   3.4498101255907E+01
(PID.TID 0000.0001) %MON dynstat_salt_sd              =   2.7015615759551E-01
(PID.TID 0000.0001) %MON dynstat_salt_del2            =   5.5751831348104E-07
(PID.TID 0000.0001) %MON advcfl_uvel_max              =   3.1995167810810E-04
(PID.TID 0000.0001) %MON advcfl_vvel_max              =   2.9923904254563E-04
(PID.TID 0000.0001) %MON advcfl_wvel_max              =   1.0748757584074E-03
(PID.TID 0000.0001) %MON advcfl_W_hf_max              =   1.0748757584074E-03
(PID.TID 0000.0001) %MON pe_b_mean                    =  -6.8291770902109E-01
(PID.TID 0000.0001) %MON ke_max                       =   5.3894683460393E-06
(PID.TID 0000.0001) %MON ke_mean                      =   7.0034270253193E-09
(PID.TID 0000.0001) %MON ke_vol                       =   4.6182869923505E+12
(PID.TID 0000.0001) // =======================================================
(PID.TID 0000.0001) // End MONITOR dynamic field statistics
(PID.TID 0000.0001) // =======================================================
(PID.TID 0000.0001) // =======================================================
(PID.TID 0000.0001) // Begin OBCS MONITOR field statistics
(PID.TID 0000.0001) // =======================================================
(PID.TID 0000.0001) %MON obc_N_vVel_max               =  -2.9258332864389E-06
(PID.TID 0000.0001) %MON obc_N_vVel_min               =  -2.9258332864390E-06
(PID.TID 0000.0001) %MON obc_N_vVel_mean              =  -2.9258332864389E-06
(PID.TID 0000.0001) %MON obc_N_vVel_sd                =   3.7274722469090E-13
(PID.TID 0000.0001) %MON obc_N_vVel_Int               =  -1.9310499690497E+02
(PID.TID 0000.0001) // =======================================================
(PID.TID 0000.0001) // End OBCS MONITOR field statistics
(PID.TID 0000.0001) // =======================================================
 cg2d: Sum(rhs),rhsMax =   3.01247789577602E+00  4.53053407695059E+02
(PID.TID 0000.0001)      cg2d_init_res =   2.66465318908357E-06
(PID.TID 0000.0001)      cg2d_iters(min,last) =      -1      69
(PID.TID 0000.0001)      cg2d_last_res =   9.70886055982738E-12
(PID.TID 0000.0001) // =======================================================
(PID.TID 0000.0001) // Begin MONITOR dynamic field statistics
(PID.TID 0000.0001) // =======================================================
(PID.TID 0000.0001) %MON time_tsnumber                =                   174
(PID.TID 0000.0001) %MON time_secondsf                =   1.7400000000000E+04
(PID.TID 0000.0001) %MON dynstat_eta_max              =   5.7959825824265E+00
(PID.TID 0000.0001) %MON dynstat_eta_min              =  -1.4177907013084E+01
(PID.TID 0000.0001) %MON dynstat_eta_mean             =  -2.5274321783099E+00
(PID.TID 0000.0001) %MON dynstat_eta_sd               =   4.9420913922818E+00
(PID.TID 0000.0001) %MON dynstat_eta_del2             =   1.9058059719155E-01
(PID.TID 0000.0001) %MON dynstat_uvel_max             =   2.5184380759296E-03
(PID.TID 0000.0001) %MON dynstat_uvel_min             =  -3.2100350348976E-03
(PID.TID 0000.0001) %MON dynstat_uvel_mean            =  -6.6604418483953E-10
(PID.TID 0000.0001) %MON dynstat_uvel_sd              =   7.3290178565700E-05
(PID.TID 0000.0001) %MON dynstat_uvel_del2            =   4.1103345015445E-07
(PID.TID 0000.0001) %MON dynstat_vvel_max             =   3.0010671126410E-03
(PID.TID 0000.0001) %MON dynstat_vvel_min             =  -2.2737667494699E-03
(PID.TID 0000.0001) %MON dynstat_vvel_mean            =  -3.2375276511365E-06
(PID.TID 0000.0001) %MON dynstat_vvel_sd              =   9.3598172294570E-05
(PID.TID 0000.0001) %MON dynstat_vvel_del2            =   4.7195535872450E-07
(PID.TID 0000.0001) %MON dynstat_wvel_max             =   2.1528825119946E-04
(PID.TID 0000.0001) %MON dynstat_wvel_min             =  -1.4941292240925E-04
(PID.TID 0000.0001) %MON dynstat_wvel_mean            =   5.5041615672509E-11
(PID.TID 0000.0001) %MON dynstat_wvel_sd              =   2.4678534559982E-05
(PID.TID 0000.0001) %MON dynstat_wvel_del2            =   1.3166555534280E-07
(PID.TID 0000.0001) %MON dynstat_theta_max            =   1.2000000000000E+00
(PID.TID 0000.0001) %MON dynstat_theta_min            =  -1.0000000000000E+00
(PID.TID 0000.0001) %MON dynstat_theta_mean           =   5.6546960450691E-01
(PID.TID 0000.0001) %MON dynstat_theta_sd             =   8.4906113056403E-01
(PID.TID 0000.0001) %MON dynstat_theta_del2           =   1.7755163669270E-06
(PID.TID 0000.0001) %MON dynstat_salt_max             =   3.4700000000000E+01
(PID.TID 0000.0001) %MON dynstat_salt_min             =   3.4000000000000E+01
(PID.TID 0000.0001) %MON dynstat_salt_mean            =   3.4498101175356E+01
(PID.TID 0000.0001) %MON dynstat_salt_sd              =   2.7015614570340E-01
(PID.TID 0000.0001) %MON dynstat_salt_del2            =   5.5465401633456E-07
(PID.TID 0000.0001) %MON advcfl_uvel_max              =   3.2100350348976E-04
(PID.TID 0000.0001) %MON advcfl_vvel_max              =   3.0010671126410E-04
(PID.TID 0000.0001) %MON advcfl_wvel_max              =   1.0764412559973E-03
(PID.TID 0000.0001) %MON advcfl_W_hf_max              =   1.0764412559973E-03
(PID.TID 0000.0001) %MON pe_b_mean                    =  -6.8291654613519E-01
(PID.TID 0000.0001) %MON ke_max                       =   5.4078493024324E-06
(PID.TID 0000.0001) %MON ke_mean                      =   7.0206112583808E-09
(PID.TID 0000.0001) %MON ke_vol                       =   4.6182870223916E+12
(PID.TID 0000.0001) // =======================================================
(PID.TID 0000.0001) // End MONITOR dynamic field statistics
(PID.TID 0000.0001) // =======================================================
(PID.TID 0000.0001) // =======================================================
(PID.TID 0000.0001) // Begin OBCS MONITOR field statistics
(PID.TID 0000.0001) // =======================================================
(PID.TID 0000.0001) %MON obc_N_vVel_max               =  -2.9906480995512E-06
(PID.TID 0000.0001) %MON obc_N_vVel_min               =  -2.9906480995512E-06
(PID.TID 0000.0001) %MON obc_N_vVel_mean              =  -2.9906480995512E-06
(PID.TID 0000.0001) %MON obc_N_vVel_sd                =  -6.0746076234363E-25
(PID.TID 0000.0001) %MON obc_N_vVel_Int               =  -1.9738277457038E+02
(PID.TID 0000.0001) // =======================================================
(PID.TID 0000.0001) // End OBCS MONITOR field statistics
(PID.TID 0000.0001) // =======================================================
 cg2d: Sum(rhs),rhsMax =   3.01247185657350E+00  4.53053401714174E+02
(PID.TID 0000.0001)      cg2d_init_res =   2.67884259056435E-06
(PID.TID 0000.0001)      cg2d_iters(min,last) =      -1      69
(PID.TID 0000.0001)      cg2d_last_res =   9.58724720046053E-12
(PID.TID 0000.0001) // =======================================================
(PID.TID 0000.0001) // Begin MONITOR dynamic field statistics
(PID.TID 0000.0001) // =======================================================
(PID.TID 0000.0001) %MON time_tsnumber                =                   175
(PID.TID 0000.0001) %MON time_secondsf                =   1.7500000000000E+04
(PID.TID 0000.0001) %MON dynstat_eta_max              =   5.7959900242805E+00
(PID.TID 0000.0001) %MON dynstat_eta_min              =  -1.4177894969907E+01
(PID.TID 0000.0001) %MON dynstat_eta_mean             =  -2.5274270781275E+00
(PID.TID 0000.0001) %MON dynstat_eta_sd               =   4.9420898006588E+00
(PID.TID 0000.0001) %MON dynstat_eta_del2             =   1.9058059696055E-01
(PID.TID 0000.0001) %MON dynstat_uvel_max             =   2.5198452937936E-03
(PID.TID 0000.0001) %MON dynstat_uvel_min             =  -3.2204018908706E-03
(PID.TID 0000.0001) %MON dynstat_uvel_mean            =  -5.0065520743742E-09
(PID.TID 0000.0001) %MON dynstat_uvel_sd              =   7.3406757190623E-05
(PID.TID 0000.0001) %MON dynstat_uvel_del2            =   4.1047871573741E-07
(PID.TID 0000.0001) %MON dynstat_vvel_max             =   3.0096517620564E-03
(PID.TID 0000.0001) %MON dynstat_vvel_min             =  -2.2725172541236E-03
(PID.TID 0000.0001) %MON dynstat_vvel_mean            =  -3.1256797031327E-06
(PID.TID 0000.0001) %MON dynstat_vvel_sd              =   9.3699727822687E-05
(PID.TID 0000.0001) %MON dynstat_vvel_del2            =   4.7166065597161E-07
(PID.TID 0000.0001) %MON dynstat_wvel_max             =   2.1558729372266E-04
(PID.TID 0000.0001) %MON dynstat_wvel_min             =  -1.3732835351948E-04
(PID.TID 0000.0001) %MON dynstat_wvel_mean            =   8.1704979698415E-10
(PID.TID 0000.0001) %MON dynstat_wvel_sd              =   2.4681422919928E-05
(PID.TID 0000.0001) %MON dynstat_wvel_del2            =   1.3212016449115E-07
(PID.TID 0000.0001) %MON dynstat_theta_max            =   1.2000000000000E+00
(PID.TID 0000.0001) %MON dynstat_theta_min            =  -1.0000000000000E+00
(PID.TID 0000.0001) %MON dynstat_theta_mean           =   5.6546940111785E-01
(PID.TID 0000.0001) %MON dynstat_theta_sd             =   8.4906108759668E-01
(PID.TID 0000.0001) %MON dynstat_theta_del2           =   1.7663979477788E-06
(PID.TID 0000.0001) %MON dynstat_salt_max             =   3.4700000000000E+01
(PID.TID 0000.0001) %MON dynstat_salt_min             =   3.4000000000000E+01
(PID.TID 0000.0001) %MON dynstat_salt_mean            =   3.4498101094797E+01
(PID.TID 0000.0001) %MON dynstat_salt_sd              =   2.7015613379794E-01
(PID.TID 0000.0001) %MON dynstat_salt_del2            =   5.5180432799158E-07
(PID.TID 0000.0001) %MON advcfl_uvel_max              =   3.2204018908706E-04
(PID.TID 0000.0001) %MON advcfl_vvel_max              =   3.0096517620564E-04
(PID.TID 0000.0001) %MON advcfl_wvel_max              =   1.0779364686133E-03
(PID.TID 0000.0001) %MON advcfl_W_hf_max              =   1.0779364686133E-03
(PID.TID 0000.0001) %MON pe_b_mean                    =  -6.8291541133375E-01
(PID.TID 0000.0001) %MON ke_max                       =   5.4257190142305E-06
(PID.TID 0000.0001) %MON ke_mean                      =   7.0381563676720E-09
(PID.TID 0000.0001) %MON ke_vol                       =   4.6182870528608E+12
(PID.TID 0000.0001) // =======================================================
(PID.TID 0000.0001) // End MONITOR dynamic field statistics
(PID.TID 0000.0001) // =======================================================
(PID.TID 0000.0001) // =======================================================
(PID.TID 0000.0001) // Begin OBCS MONITOR field statistics
(PID.TID 0000.0001) // =======================================================
(PID.TID 0000.0001) %MON obc_N_vVel_max               =  -2.9642147778588E-06
(PID.TID 0000.0001) %MON obc_N_vVel_min               =  -2.9642147778589E-06
(PID.TID 0000.0001) %MON obc_N_vVel_mean              =  -2.9642147778588E-06
(PID.TID 0000.0001) %MON obc_N_vVel_sd                =  -2.1002632740604E-26
(PID.TID 0000.0001) %MON obc_N_vVel_Int               =  -1.9563817533868E+02
(PID.TID 0000.0001) // =======================================================
(PID.TID 0000.0001) // End OBCS MONITOR field statistics
(PID.TID 0000.0001) // =======================================================
 cg2d: Sum(rhs),rhsMax =   3.01246596502574E+00  4.53053395456956E+02
(PID.TID 0000.0001)      cg2d_init_res =   2.69560015875829E-06
(PID.TID 0000.0001)      cg2d_iters(min,last) =      -1      69
(PID.TID 0000.0001)      cg2d_last_res =   9.29753453190088E-12
(PID.TID 0000.0001) // =======================================================
(PID.TID 0000.0001) // Begin MONITOR dynamic field statistics
(PID.TID 0000.0001) // =======================================================
(PID.TID 0000.0001) %MON time_tsnumber                =                   176
(PID.TID 0000.0001) %MON time_secondsf                =   1.7600000000000E+04
(PID.TID 0000.0001) %MON dynstat_eta_max              =   5.7959971699545E+00
(PID.TID 0000.0001) %MON dynstat_eta_min              =  -1.4177883442918E+01
(PID.TID 0000.0001) %MON dynstat_eta_mean             =  -2.5274221002841E+00
(PID.TID 0000.0001) %MON dynstat_eta_sd               =   4.9420883193815E+00
(PID.TID 0000.0001) %MON dynstat_eta_del2             =   1.9058059669840E-01
(PID.TID 0000.0001) %MON dynstat_uvel_max             =   2.5210731846599E-03
(PID.TID 0000.0001) %MON dynstat_uvel_min             =  -3.2306177757373E-03
(PID.TID 0000.0001) %MON dynstat_uvel_mean            =  -8.8697888938387E-09
(PID.TID 0000.0001) %MON dynstat_uvel_sd              =   7.3523303566054E-05
(PID.TID 0000.0001) %MON dynstat_uvel_del2            =   4.0991081967480E-07
(PID.TID 0000.0001) %MON dynstat_vvel_max             =   3.0181396332010E-03
(PID.TID 0000.0001) %MON dynstat_vvel_min             =  -2.2710226505875E-03
(PID.TID 0000.0001) %MON dynstat_vvel_mean            =  -2.9313088729852E-06
(PID.TID 0000.0001) %MON dynstat_vvel_sd              =   9.3803165473325E-05
(PID.TID 0000.0001) %MON dynstat_vvel_del2            =   4.7134558916040E-07
(PID.TID 0000.0001) %MON dynstat_wvel_max             =   2.1587255573772E-04
(PID.TID 0000.0001) %MON dynstat_wvel_min             =  -1.2248850218676E-04
(PID.TID 0000.0001) %MON dynstat_wvel_mean            =   1.5026393941572E-09
(PID.TID 0000.0001) %MON dynstat_wvel_sd              =   2.4687366260443E-05
(PID.TID 0000.0001) %MON dynstat_wvel_del2            =   1.3257661703520E-07
(PID.TID 0000.0001) %MON dynstat_theta_max            =   1.2000000000000E+00
(PID.TID 0000.0001) %MON dynstat_theta_min            =  -1.0000000000000E+00
(PID.TID 0000.0001) %MON dynstat_theta_mean           =   5.6546919774032E-01
(PID.TID 0000.0001) %MON dynstat_theta_sd             =   8.4906104460425E-01
(PID.TID 0000.0001) %MON dynstat_theta_del2           =   1.7573748113790E-06
(PID.TID 0000.0001) %MON dynstat_salt_max             =   3.4700000000000E+01
(PID.TID 0000.0001) %MON dynstat_salt_min             =   3.4000000000000E+01
(PID.TID 0000.0001) %MON dynstat_salt_mean            =   3.4498101014240E+01
(PID.TID 0000.0001) %MON dynstat_salt_sd              =   2.7015612188257E-01
(PID.TID 0000.0001) %MON dynstat_salt_del2            =   5.4898746912556E-07
(PID.TID 0000.0001) %MON advcfl_uvel_max              =   3.2306177757373E-04
(PID.TID 0000.0001) %MON advcfl_vvel_max              =   3.0181396332010E-04
(PID.TID 0000.0001) %MON advcfl_wvel_max              =   1.0793627786886E-03
(PID.TID 0000.0001) %MON advcfl_W_hf_max              =   1.0793627786886E-03
(PID.TID 0000.0001) %MON pe_b_mean                    =  -6.8291432158452E-01
(PID.TID 0000.0001) %MON ke_max                       =   5.4430741603584E-06
(PID.TID 0000.0001) %MON ke_mean                      =   7.0556682945201E-09
(PID.TID 0000.0001) %MON ke_vol                       =   4.6182870831559E+12
(PID.TID 0000.0001) // =======================================================
(PID.TID 0000.0001) // End MONITOR dynamic field statistics
(PID.TID 0000.0001) // =======================================================
(PID.TID 0000.0001) // =======================================================
(PID.TID 0000.0001) // Begin OBCS MONITOR field statistics
(PID.TID 0000.0001) // =======================================================
(PID.TID 0000.0001) %MON obc_N_vVel_max               =  -2.8540594459685E-06
(PID.TID 0000.0001) %MON obc_N_vVel_min               =  -2.8540594459685E-06
(PID.TID 0000.0001) %MON obc_N_vVel_mean              =  -2.8540594459685E-06
(PID.TID 0000.0001) %MON obc_N_vVel_sd                =  -8.2394943828524E-26
(PID.TID 0000.0001) %MON obc_N_vVel_Int               =  -1.8836792343392E+02
(PID.TID 0000.0001) // =======================================================
(PID.TID 0000.0001) // End OBCS MONITOR field statistics
(PID.TID 0000.0001) // =======================================================
 cg2d: Sum(rhs),rhsMax =   3.01246032018126E+00  4.53053388815259E+02
(PID.TID 0000.0001)      cg2d_init_res =   2.71212413584920E-06
(PID.TID 0000.0001)      cg2d_iters(min,last) =      -1      69
(PID.TID 0000.0001)      cg2d_last_res =   8.92492390532766E-12
(PID.TID 0000.0001) // =======================================================
(PID.TID 0000.0001) // Begin MONITOR dynamic field statistics
(PID.TID 0000.0001) // =======================================================
(PID.TID 0000.0001) %MON time_tsnumber                =                   177
(PID.TID 0000.0001) %MON time_secondsf                =   1.7700000000000E+04
(PID.TID 0000.0001) %MON dynstat_eta_max              =   5.7960038991685E+00
(PID.TID 0000.0001) %MON dynstat_eta_min              =  -1.4177872572503E+01
(PID.TID 0000.0001) %MON dynstat_eta_mean             =  -2.5274173272771E+00
(PID.TID 0000.0001) %MON dynstat_eta_sd               =   4.9420869656036E+00
(PID.TID 0000.0001) %MON dynstat_eta_del2             =   1.9058059640524E-01
(PID.TID 0000.0001) %MON dynstat_uvel_max             =   2.5221225048213E-03
(PID.TID 0000.0001) %MON dynstat_uvel_min             =  -3.2406831101588E-03
(PID.TID 0000.0001) %MON dynstat_uvel_mean            =  -1.2176499160736E-08
(PID.TID 0000.0001) %MON dynstat_uvel_sd              =   7.3639886210449E-05
(PID.TID 0000.0001) %MON dynstat_uvel_del2            =   4.0933013077823E-07
(PID.TID 0000.0001) %MON dynstat_vvel_max             =   3.0265252737571E-03
(PID.TID 0000.0001) %MON dynstat_vvel_min             =  -2.2692942170792E-03
(PID.TID 0000.0001) %MON dynstat_vvel_mean            =  -2.6663213175416E-06
(PID.TID 0000.0001) %MON dynstat_vvel_sd              =   9.3903456580461E-05
(PID.TID 0000.0001) %MON dynstat_vvel_del2            =   4.7093894607177E-07
(PID.TID 0000.0001) %MON dynstat_wvel_max             =   2.1614433565468E-04
(PID.TID 0000.0001) %MON dynstat_wvel_min             =  -1.1488008934033E-04
(PID.TID 0000.0001) %MON dynstat_wvel_mean            =   2.0969395004714E-09
(PID.TID 0000.0001) %MON dynstat_wvel_sd              =   2.4687347966898E-05
(PID.TID 0000.0001) %MON dynstat_wvel_del2            =   1.3292141284241E-07
(PID.TID 0000.0001) %MON dynstat_theta_max            =   1.2000000000000E+00
(PID.TID 0000.0001) %MON dynstat_theta_min            =  -1.0000000000000E+00
(PID.TID 0000.0001) %MON dynstat_theta_mean           =   5.6546899440853E-01
(PID.TID 0000.0001) %MON dynstat_theta_sd             =   8.4906100152374E-01
(PID.TID 0000.0001) %MON dynstat_theta_del2           =   1.7484990938041E-06
(PID.TID 0000.0001) %MON dynstat_salt_max             =   3.4700000000000E+01
(PID.TID 0000.0001) %MON dynstat_salt_min             =   3.4000000000000E+01
(PID.TID 0000.0001) %MON dynstat_salt_mean            =   3.4498100933698E+01
(PID.TID 0000.0001) %MON dynstat_salt_sd              =   2.7015610993696E-01
(PID.TID 0000.0001) %MON dynstat_salt_del2            =   5.4622038476178E-07
(PID.TID 0000.0001) %MON advcfl_uvel_max              =   3.2406831101588E-04
(PID.TID 0000.0001) %MON advcfl_vvel_max              =   3.0265252737571E-04
(PID.TID 0000.0001) %MON advcfl_wvel_max              =   1.0807216782734E-03
(PID.TID 0000.0001) %MON advcfl_W_hf_max              =   1.0807216782734E-03
(PID.TID 0000.0001) %MON pe_b_mean                    =  -6.8291329125463E-01
(PID.TID 0000.0001) %MON ke_max                       =   5.4599106287139E-06
(PID.TID 0000.0001) %MON ke_mean                      =   7.0727597640172E-09
(PID.TID 0000.0001) %MON ke_vol                       =   4.6182871127243E+12
(PID.TID 0000.0001) // =======================================================
(PID.TID 0000.0001) // End MONITOR dynamic field statistics
(PID.TID 0000.0001) // =======================================================
(PID.TID 0000.0001) // =======================================================
(PID.TID 0000.0001) // Begin OBCS MONITOR field statistics
(PID.TID 0000.0001) // =======================================================
(PID.TID 0000.0001) %MON obc_N_vVel_max               =  -2.6696575352890E-06
(PID.TID 0000.0001) %MON obc_N_vVel_min               =  -2.6696575352891E-06
(PID.TID 0000.0001) %MON obc_N_vVel_mean              =  -2.6696575352891E-06
(PID.TID 0000.0001) %MON obc_N_vVel_sd                =  -6.2200104654866E-25
(PID.TID 0000.0001) %MON obc_N_vVel_Int               =  -1.7619739732908E+02
(PID.TID 0000.0001) // =======================================================
(PID.TID 0000.0001) // End OBCS MONITOR field statistics
(PID.TID 0000.0001) // =======================================================
 cg2d: Sum(rhs),rhsMax =   3.01245500638115E+00  4.53053381702395E+02
(PID.TID 0000.0001)      cg2d_init_res =   2.72577789007636E-06
(PID.TID 0000.0001)      cg2d_iters(min,last) =      -1      69
(PID.TID 0000.0001)      cg2d_last_res =   8.52260310052858E-12
(PID.TID 0000.0001) // =======================================================
(PID.TID 0000.0001) // Begin MONITOR dynamic field statistics
(PID.TID 0000.0001) // =======================================================
(PID.TID 0000.0001) %MON time_tsnumber                =                   178
(PID.TID 0000.0001) %MON time_secondsf                =   1.7800000000000E+04
(PID.TID 0000.0001) %MON dynstat_eta_max              =   5.7960101127064E+00
(PID.TID 0000.0001) %MON dynstat_eta_min              =  -1.4177862468756E+01
(PID.TID 0000.0001) %MON dynstat_eta_mean             =  -2.5274128293839E+00
(PID.TID 0000.0001) %MON dynstat_eta_sd               =   4.9420857513950E+00
(PID.TID 0000.0001) %MON dynstat_eta_del2             =   1.9058059608210E-01
(PID.TID 0000.0001) %MON dynstat_uvel_max             =   2.5229938945657E-03
(PID.TID 0000.0001) %MON dynstat_uvel_min             =  -3.2505983226938E-03
(PID.TID 0000.0001) %MON dynstat_uvel_mean            =  -1.4869757817579E-08
(PID.TID 0000.0001) %MON dynstat_uvel_sd              =   7.3756572000814E-05
(PID.TID 0000.0001) %MON dynstat_uvel_del2            =   4.0873700908053E-07
(PID.TID 0000.0001) %MON dynstat_vvel_max             =   3.0348027639597E-03
(PID.TID 0000.0001) %MON dynstat_vvel_min             =  -2.2673439173584E-03
(PID.TID 0000.0001) %MON dynstat_vvel_mean            =  -2.3438590078867E-06
(PID.TID 0000.0001) %MON dynstat_vvel_sd              =   9.3996141492220E-05
(PID.TID 0000.0001) %MON dynstat_vvel_del2            =   4.7038228079572E-07
(PID.TID 0000.0001) %MON dynstat_wvel_max             =   2.1640294657276E-04
(PID.TID 0000.0001) %MON dynstat_wvel_min             =  -1.2592989289310E-04
(PID.TID 0000.0001) %MON dynstat_wvel_mean            =   2.5888981853214E-09
(PID.TID 0000.0001) %MON dynstat_wvel_sd              =   2.4673494039721E-05
(PID.TID 0000.0001) %MON dynstat_wvel_del2            =   1.3306081407535E-07
(PID.TID 0000.0001) %MON dynstat_theta_max            =   1.2000000000000E+00
(PID.TID 0000.0001) %MON dynstat_theta_min            =  -1.0000000000000E+00
(PID.TID 0000.0001) %MON dynstat_theta_mean           =   5.6546879115260E-01
(PID.TID 0000.0001) %MON dynstat_theta_sd             =   8.4906095835531E-01
(PID.TID 0000.0001) %MON dynstat_theta_del2           =   1.7398110760597E-06
(PID.TID 0000.0001) %MON dynstat_salt_max             =   3.4700000000000E+01
(PID.TID 0000.0001) %MON dynstat_salt_min             =   3.4000000000000E+01
(PID.TID 0000.0001) %MON dynstat_salt_mean            =   3.4498100853179E+01
(PID.TID 0000.0001) %MON dynstat_salt_sd              =   2.7015609796151E-01
(PID.TID 0000.0001) %MON dynstat_salt_del2            =   5.4351611772567E-07
(PID.TID 0000.0001) %MON advcfl_uvel_max              =   3.2505983226938E-04
(PID.TID 0000.0001) %MON advcfl_vvel_max              =   3.0348027639597E-04
(PID.TID 0000.0001) %MON advcfl_wvel_max              =   1.0820147328638E-03
(PID.TID 0000.0001) %MON advcfl_W_hf_max              =   1.0820147328638E-03
(PID.TID 0000.0001) %MON pe_b_mean                    =  -6.8291233187214E-01
(PID.TID 0000.0001) %MON ke_max                       =   5.4762237913489E-06
(PID.TID 0000.0001) %MON ke_mean                      =   7.0891018578302E-09
(PID.TID 0000.0001) %MON ke_vol                       =   4.6182871410760E+12
(PID.TID 0000.0001) // =======================================================
(PID.TID 0000.0001) // End MONITOR dynamic field statistics
(PID.TID 0000.0001) // =======================================================
(PID.TID 0000.0001) // =======================================================
(PID.TID 0000.0001) // Begin OBCS MONITOR field statistics
(PID.TID 0000.0001) // =======================================================
(PID.TID 0000.0001) %MON obc_N_vVel_max               =  -2.4220067860618E-06
(PID.TID 0000.0001) %MON obc_N_vVel_min               =  -2.4220067860619E-06
(PID.TID 0000.0001) %MON obc_N_vVel_mean              =  -2.4220067860618E-06
(PID.TID 0000.0001) %MON obc_N_vVel_sd                =   6.7677097489369E-13
(PID.TID 0000.0001) %MON obc_N_vVel_Int               =  -1.5985244788008E+02
(PID.TID 0000.0001) // =======================================================
(PID.TID 0000.0001) // End OBCS MONITOR field statistics
(PID.TID 0000.0001) // =======================================================
 cg2d: Sum(rhs),rhsMax =   3.01245009181794E+00  4.53053374054569E+02
(PID.TID 0000.0001)      cg2d_init_res =   2.73443576149448E-06
(PID.TID 0000.0001)      cg2d_iters(min,last) =      -1      69
(PID.TID 0000.0001)      cg2d_last_res =   8.05010083986371E-12
(PID.TID 0000.0001) // =======================================================
(PID.TID 0000.0001) // Begin MONITOR dynamic field statistics
(PID.TID 0000.0001) // =======================================================
(PID.TID 0000.0001) %MON time_tsnumber                =                   179
(PID.TID 0000.0001) %MON time_secondsf                =   1.7900000000000E+04
(PID.TID 0000.0001) %MON dynstat_eta_max              =   5.7960157360182E+00
(PID.TID 0000.0001) %MON dynstat_eta_min              =  -1.4177853210442E+01
(PID.TID 0000.0001) %MON dynstat_eta_mean             =  -2.5274086634613E+00
(PID.TID 0000.0001) %MON dynstat_eta_sd               =   4.9420846837584E+00
(PID.TID 0000.0001) %MON dynstat_eta_del2             =   1.9058059573083E-01
(PID.TID 0000.0001) %MON dynstat_uvel_max             =   2.5236879023662E-03
(PID.TID 0000.0001) %MON dynstat_uvel_min             =  -3.2603638621713E-03
(PID.TID 0000.0001) %MON dynstat_uvel_mean            =  -1.6914937032820E-08
(PID.TID 0000.0001) %MON dynstat_uvel_sd              =   7.3873426240084E-05
(PID.TID 0000.0001) %MON dynstat_uvel_del2            =   4.0813180799686E-07
(PID.TID 0000.0001) %MON dynstat_vvel_max             =   3.0429659557463E-03
(PID.TID 0000.0001) %MON dynstat_vvel_min             =  -2.2651840413452E-03
(PID.TID 0000.0001) %MON dynstat_vvel_mean            =  -1.9778146816139E-06
(PID.TID 0000.0001) %MON dynstat_vvel_sd              =   9.4077899380651E-05
(PID.TID 0000.0001) %MON dynstat_vvel_del2            =   4.6963711498880E-07
(PID.TID 0000.0001) %MON dynstat_wvel_max             =   2.1664870909373E-04
(PID.TID 0000.0001) %MON dynstat_wvel_min             =  -1.3455897013063E-04
(PID.TID 0000.0001) %MON dynstat_wvel_mean            =   2.9713438133678E-09
(PID.TID 0000.0001) %MON dynstat_wvel_sd              =   2.4640038858188E-05
(PID.TID 0000.0001) %MON dynstat_wvel_del2            =   1.3293119180449E-07
(PID.TID 0000.0001) %MON dynstat_theta_max            =   1.2000000000000E+00
(PID.TID 0000.0001) %MON dynstat_theta_min            =  -1.0000000000000E+00
(PID.TID 0000.0001) %MON dynstat_theta_mean           =   5.6546858799802E-01
(PID.TID 0000.0001) %MON dynstat_theta_sd             =   8.4906091513096E-01
(PID.TID 0000.0001) %MON dynstat_theta_del2           =   1.7313363914141E-06
(PID.TID 0000.0001) %MON dynstat_salt_max             =   3.4700000000000E+01
(PID.TID 0000.0001) %MON dynstat_salt_min             =   3.4000000000000E+01
(PID.TID 0000.0001) %MON dynstat_salt_mean            =   3.4498100772692E+01
(PID.TID 0000.0001) %MON dynstat_salt_sd              =   2.7015608596621E-01
(PID.TID 0000.0001) %MON dynstat_salt_del2            =   5.4088287291105E-07
(PID.TID 0000.0001) %MON advcfl_uvel_max              =   3.2603638621713E-04
(PID.TID 0000.0001) %MON advcfl_vvel_max              =   3.0429659557463E-04
(PID.TID 0000.0001) %MON advcfl_wvel_max              =   1.0832435454686E-03
(PID.TID 0000.0001) %MON advcfl_W_hf_max              =   1.0832435454686E-03
(PID.TID 0000.0001) %MON pe_b_mean                    =  -6.8291145199077E-01
(PID.TID 0000.0001) %MON ke_max                       =   5.4920087811453E-06
(PID.TID 0000.0001) %MON ke_mean                      =   7.1044672727431E-09
(PID.TID 0000.0001) %MON ke_vol                       =   4.6182871677935E+12
(PID.TID 0000.0001) // =======================================================
(PID.TID 0000.0001) // End MONITOR dynamic field statistics
(PID.TID 0000.0001) // =======================================================
(PID.TID 0000.0001) // =======================================================
(PID.TID 0000.0001) // Begin OBCS MONITOR field statistics
(PID.TID 0000.0001) // =======================================================
(PID.TID 0000.0001) %MON obc_N_vVel_max               =  -2.1231858240758E-06
(PID.TID 0000.0001) %MON obc_N_vVel_min               =  -2.1231858240758E-06
(PID.TID 0000.0001) %MON obc_N_vVel_mean              =  -2.1231858240758E-06
(PID.TID 0000.0001) %MON obc_N_vVel_sd                =   5.4299599624252E-13
(PID.TID 0000.0001) %MON obc_N_vVel_Int               =  -1.4013026438900E+02
(PID.TID 0000.0001) // =======================================================
(PID.TID 0000.0001) // End OBCS MONITOR field statistics
(PID.TID 0000.0001) // =======================================================
 cg2d: Sum(rhs),rhsMax =   3.01244562768724E+00  4.53053365831459E+02
(PID.TID 0000.0001)      cg2d_init_res =   2.73669442719448E-06
(PID.TID 0000.0001)      cg2d_iters(min,last) =      -1      68
(PID.TID 0000.0001)      cg2d_last_res =   9.88577415658149E-12
(PID.TID 0000.0001) // =======================================================
(PID.TID 0000.0001) // Begin MONITOR dynamic field statistics
(PID.TID 0000.0001) // =======================================================
(PID.TID 0000.0001) %MON time_tsnumber                =                   180
(PID.TID 0000.0001) %MON time_secondsf                =   1.8000000000000E+04
(PID.TID 0000.0001) %MON dynstat_eta_max              =   5.7960207169945E+00
(PID.TID 0000.0001) %MON dynstat_eta_min              =  -1.4177844845282E+01
(PID.TID 0000.0001) %MON dynstat_eta_mean             =  -2.5274048722370E+00
(PID.TID 0000.0001) %MON dynstat_eta_sd               =   4.9420837648135E+00
(PID.TID 0000.0001) %MON dynstat_eta_del2             =   1.9058059535462E-01
(PID.TID 0000.0001) %MON dynstat_uvel_max             =   2.5242050075445E-03
(PID.TID 0000.0001) %MON dynstat_uvel_min             =  -3.2699802044542E-03
(PID.TID 0000.0001) %MON dynstat_uvel_mean            =  -1.8298970343733E-08
(PID.TID 0000.0001) %MON dynstat_uvel_sd              =   7.3990512841960E-05
(PID.TID 0000.0001) %MON dynstat_uvel_del2            =   4.0751487703878E-07
(PID.TID 0000.0001) %MON dynstat_vvel_max             =   3.0510087086322E-03
(PID.TID 0000.0001) %MON dynstat_vvel_min             =  -2.2628268634417E-03
(PID.TID 0000.0001) %MON dynstat_vvel_mean            =  -1.5823590507806E-06
(PID.TID 0000.0001) %MON dynstat_vvel_sd              =   9.4146946988329E-05
(PID.TID 0000.0001) %MON dynstat_vvel_del2            =   4.6868933614732E-07
(PID.TID 0000.0001) %MON dynstat_wvel_max             =   2.1688194130610E-04
(PID.TID 0000.0001) %MON dynstat_wvel_min             =  -1.4168788875408E-04
(PID.TID 0000.0001) %MON dynstat_wvel_mean            =   3.2409254556736E-09
(PID.TID 0000.0001) %MON dynstat_wvel_sd              =   2.4583975232558E-05
(PID.TID 0000.0001) %MON dynstat_wvel_del2            =   1.3250510689233E-07
(PID.TID 0000.0001) %MON dynstat_theta_max            =   1.2000000000000E+00
(PID.TID 0000.0001) %MON dynstat_theta_min            =  -1.0000000000000E+00
(PID.TID 0000.0001) %MON dynstat_theta_mean           =   5.6546838496518E-01
(PID.TID 0000.0001) %MON dynstat_theta_sd             =   8.4906087189321E-01
(PID.TID 0000.0001) %MON dynstat_theta_del2           =   1.7230818170172E-06
(PID.TID 0000.0001) %MON dynstat_salt_max             =   3.4700000000000E+01
(PID.TID 0000.0001) %MON dynstat_salt_min             =   3.4000000000000E+01
(PID.TID 0000.0001) %MON dynstat_salt_mean            =   3.4498100692244E+01
(PID.TID 0000.0001) %MON dynstat_salt_sd              =   2.7015607396474E-01
(PID.TID 0000.0001) %MON dynstat_salt_del2            =   5.3832298785354E-07
(PID.TID 0000.0001) %MON advcfl_uvel_max              =   3.2699802044542E-04
(PID.TID 0000.0001) %MON advcfl_vvel_max              =   3.0510087086322E-04
(PID.TID 0000.0001) %MON advcfl_wvel_max              =   1.0844097065305E-03
(PID.TID 0000.0001) %MON advcfl_W_hf_max              =   1.0844097065305E-03
(PID.TID 0000.0001) %MON pe_b_mean                    =  -6.8291065715429E-01
(PID.TID 0000.0001) %MON ke_max                       =   5.5072607624380E-06
(PID.TID 0000.0001) %MON ke_mean                      =   7.1187598279707E-09
(PID.TID 0000.0001) %MON ke_vol                       =   4.6182871925390E+12
(PID.TID 0000.0001) // =======================================================
(PID.TID 0000.0001) // End MONITOR dynamic field statistics
(PID.TID 0000.0001) // =======================================================
(PID.TID 0000.0001) // =======================================================
(PID.TID 0000.0001) // Begin OBCS MONITOR field statistics
(PID.TID 0000.0001) // =======================================================
(PID.TID 0000.0001) %MON obc_N_vVel_max               =  -1.7859110671306E-06
(PID.TID 0000.0001) %MON obc_N_vVel_min               =  -1.7859110671306E-06
(PID.TID 0000.0001) %MON obc_N_vVel_mean              =  -1.7859110671306E-06
(PID.TID 0000.0001) %MON obc_N_vVel_sd                =  -1.3086255784530E-25
(PID.TID 0000.0001) %MON obc_N_vVel_Int               =  -1.1787013043062E+02
(PID.TID 0000.0001) // =======================================================
(PID.TID 0000.0001) // End OBCS MONITOR field statistics
(PID.TID 0000.0001) // =======================================================
 cg2d: Sum(rhs),rhsMax =   3.01244164791489E+00  4.53053357016240E+02
(PID.TID 0000.0001)      cg2d_init_res =   2.73190251286816E-06
(PID.TID 0000.0001)      cg2d_iters(min,last) =      -1      68
(PID.TID 0000.0001)      cg2d_last_res =   9.02677192481948E-12
(PID.TID 0000.0001) // =======================================================
(PID.TID 0000.0001) // Begin MONITOR dynamic field statistics
(PID.TID 0000.0001) // =======================================================
(PID.TID 0000.0001) %MON time_tsnumber                =                   181
(PID.TID 0000.0001) %MON time_secondsf                =   1.8100000000000E+04
(PID.TID 0000.0001) %MON dynstat_eta_max              =   5.7960250276754E+00
(PID.TID 0000.0001) %MON dynstat_eta_min              =  -1.4177837389691E+01
(PID.TID 0000.0001) %MON dynstat_eta_mean             =  -2.5274014840803E+00
(PID.TID 0000.0001) %MON dynstat_eta_sd               =   4.9420829920268E+00
(PID.TID 0000.0001) %MON dynstat_eta_del2             =   1.9058059495607E-01
(PID.TID 0000.0001) %MON dynstat_uvel_max             =   2.5245456563372E-03
(PID.TID 0000.0001) %MON dynstat_uvel_min             =  -3.2794478787694E-03
(PID.TID 0000.0001) %MON dynstat_uvel_mean            =  -1.9029535603760E-08
(PID.TID 0000.0001) %MON dynstat_uvel_sd              =   7.4107893974971E-05
(PID.TID 0000.0001) %MON dynstat_uvel_del2            =   4.0688656036367E-07
(PID.TID 0000.0001) %MON dynstat_vvel_max             =   3.0589250636064E-03
(PID.TID 0000.0001) %MON dynstat_vvel_min             =  -2.2602843239330E-03
(PID.TID 0000.0001) %MON dynstat_vvel_mean            =  -1.1714957521930E-06
(PID.TID 0000.0001) %MON dynstat_vvel_sd              =   9.4203221815404E-05
(PID.TID 0000.0001) %MON dynstat_vvel_del2            =   4.6755038229832E-07
(PID.TID 0000.0001) %MON dynstat_wvel_max             =   2.1710296745587E-04
(PID.TID 0000.0001) %MON dynstat_wvel_min             =  -1.4807067512128E-04
(PID.TID 0000.0001) %MON dynstat_wvel_mean            =   3.3978097273714E-09
(PID.TID 0000.0001) %MON dynstat_wvel_sd              =   2.4505336934021E-05
(PID.TID 0000.0001) %MON dynstat_wvel_del2            =   1.3179308683765E-07
(PID.TID 0000.0001) %MON dynstat_theta_max            =   1.2000000000000E+00
(PID.TID 0000.0001) %MON dynstat_theta_min            =  -1.0000000000000E+00
(PID.TID 0000.0001) %MON dynstat_theta_mean           =   5.6546818206917E-01
(PID.TID 0000.0001) %MON dynstat_theta_sd             =   8.4906082867638E-01
(PID.TID 0000.0001) %MON dynstat_theta_del2           =   1.7150348847986E-06
(PID.TID 0000.0001) %MON dynstat_salt_max             =   3.4700000000000E+01
(PID.TID 0000.0001) %MON dynstat_salt_min             =   3.4000000000000E+01
(PID.TID 0000.0001) %MON dynstat_salt_mean            =   3.4498100611838E+01
(PID.TID 0000.0001) %MON dynstat_salt_sd              =   2.7015606196774E-01
(PID.TID 0000.0001) %MON dynstat_salt_del2            =   5.3583236612640E-07
(PID.TID 0000.0001) %MON advcfl_uvel_max              =   3.2794478787694E-04
(PID.TID 0000.0001) %MON advcfl_vvel_max              =   3.0589250636064E-04
(PID.TID 0000.0001) %MON advcfl_wvel_max              =   1.0855148372793E-03
(PID.TID 0000.0001) %MON advcfl_W_hf_max              =   1.0855148372793E-03
(PID.TID 0000.0001) %MON pe_b_mean                    =  -6.8290994995105E-01
(PID.TID 0000.0001) %MON ke_max                       =   5.5219751699185E-06
(PID.TID 0000.0001) %MON ke_mean                      =   7.1320263907295E-09
(PID.TID 0000.0001) %MON ke_vol                       =   4.6182872150589E+12
(PID.TID 0000.0001) // =======================================================
(PID.TID 0000.0001) // End MONITOR dynamic field statistics
(PID.TID 0000.0001) // =======================================================
(PID.TID 0000.0001) // =======================================================
(PID.TID 0000.0001) // Begin OBCS MONITOR field statistics
(PID.TID 0000.0001) // =======================================================
(PID.TID 0000.0001) %MON obc_N_vVel_max               =  -1.4231047447959E-06
(PID.TID 0000.0001) %MON obc_N_vVel_min               =  -1.4231047447960E-06
(PID.TID 0000.0001) %MON obc_N_vVel_mean              =  -1.4231047447960E-06
(PID.TID 0000.0001) %MON obc_N_vVel_sd                =  -1.3611321603045E-25
(PID.TID 0000.0001) %MON obc_N_vVel_Int               =  -9.3924913156534E+01
(PID.TID 0000.0001) // =======================================================
(PID.TID 0000.0001) // End OBCS MONITOR field statistics
(PID.TID 0000.0001) // =======================================================
 cg2d: Sum(rhs),rhsMax =   3.01243816944852E+00  4.53053347607359E+02
(PID.TID 0000.0001)      cg2d_init_res =   2.72044950278180E-06
(PID.TID 0000.0001)      cg2d_iters(min,last) =      -1      68
(PID.TID 0000.0001)      cg2d_last_res =   8.35800939485289E-12
(PID.TID 0000.0001) // =======================================================
(PID.TID 0000.0001) // Begin MONITOR dynamic field statistics
(PID.TID 0000.0001) // =======================================================
(PID.TID 0000.0001) %MON time_tsnumber                =                   182
(PID.TID 0000.0001) %MON time_secondsf                =   1.8200000000000E+04
(PID.TID 0000.0001) %MON dynstat_eta_max              =   5.7960286622358E+00
(PID.TID 0000.0001) %MON dynstat_eta_min              =  -1.4177830832064E+01
(PID.TID 0000.0001) %MON dynstat_eta_mean             =  -2.5273985132015E+00
(PID.TID 0000.0001) %MON dynstat_eta_sd               =   4.9420823587362E+00
(PID.TID 0000.0001) %MON dynstat_eta_del2             =   1.9058059453976E-01
(PID.TID 0000.0001) %MON dynstat_uvel_max             =   2.5247102673784E-03
(PID.TID 0000.0001) %MON dynstat_uvel_min             =  -3.2887674386455E-03
(PID.TID 0000.0001) %MON dynstat_uvel_mean            =  -1.9132930836482E-08
(PID.TID 0000.0001) %MON dynstat_uvel_sd              =   7.4225630318304E-05
(PID.TID 0000.0001) %MON dynstat_uvel_del2            =   4.0624720058188E-07
(PID.TID 0000.0001) %MON dynstat_vvel_max             =   3.0667095176415E-03
(PID.TID 0000.0001) %MON dynstat_vvel_min             =  -2.2575677478205E-03
(PID.TID 0000.0001) %MON dynstat_vvel_mean            =  -7.5865187822889E-07
(PID.TID 0000.0001) %MON dynstat_vvel_sd              =   9.4248336414281E-05
(PID.TID 0000.0001) %MON dynstat_vvel_del2            =   4.6625520658505E-07
(PID.TID 0000.0001) %MON dynstat_wvel_max             =   2.1731208377073E-04
(PID.TID 0000.0001) %MON dynstat_wvel_min             =  -1.5375544048418E-04
(PID.TID 0000.0001) %MON dynstat_wvel_mean            =   3.4457458602918E-09
(PID.TID 0000.0001) %MON dynstat_wvel_sd              =   2.4407102058972E-05
(PID.TID 0000.0001) %MON dynstat_wvel_del2            =   1.3084129561736E-07
(PID.TID 0000.0001) %MON dynstat_theta_max            =   1.2000000000000E+00
(PID.TID 0000.0001) %MON dynstat_theta_min            =  -1.0000000000000E+00
(PID.TID 0000.0001) %MON dynstat_theta_mean           =   5.6546797931973E-01
(PID.TID 0000.0001) %MON dynstat_theta_sd             =   8.4906078541868E-01
(PID.TID 0000.0001) %MON dynstat_theta_del2           =   1.7071650652270E-06
(PID.TID 0000.0001) %MON dynstat_salt_max             =   3.4700000000000E+01
(PID.TID 0000.0001) %MON dynstat_salt_min             =   3.4000000000000E+01
(PID.TID 0000.0001) %MON dynstat_salt_mean            =   3.4498100531479E+01
(PID.TID 0000.0001) %MON dynstat_salt_sd              =   2.7015604995573E-01
(PID.TID 0000.0001) %MON dynstat_salt_del2            =   5.3340103884891E-07
(PID.TID 0000.0001) %MON advcfl_uvel_max              =   3.2887674386455E-04
(PID.TID 0000.0001) %MON advcfl_vvel_max              =   3.0667095176415E-04
(PID.TID 0000.0001) %MON advcfl_wvel_max              =   1.0865604188536E-03
(PID.TID 0000.0001) %MON advcfl_W_hf_max              =   1.0865604188536E-03
(PID.TID 0000.0001) %MON pe_b_mean                    =  -6.8290933015878E-01
(PID.TID 0000.0001) %MON ke_max                       =   5.5361479673329E-06
(PID.TID 0000.0001) %MON ke_mean                      =   7.1444500924275E-09
(PID.TID 0000.0001) %MON ke_vol                       =   4.6182872351846E+12
(PID.TID 0000.0001) // =======================================================
(PID.TID 0000.0001) // End MONITOR dynamic field statistics
(PID.TID 0000.0001) // =======================================================
(PID.TID 0000.0001) // =======================================================
(PID.TID 0000.0001) // Begin OBCS MONITOR field statistics
(PID.TID 0000.0001) // =======================================================
(PID.TID 0000.0001) %MON obc_N_vVel_max               =  -1.0475103270684E-06
(PID.TID 0000.0001) %MON obc_N_vVel_min               =  -1.0475103270684E-06
(PID.TID 0000.0001) %MON obc_N_vVel_mean              =  -1.0475103270684E-06
(PID.TID 0000.0001) %MON obc_N_vVel_sd                =  -2.0396787565394E-26
(PID.TID 0000.0001) %MON obc_N_vVel_Int               =  -6.9135681586515E+01
(PID.TID 0000.0001) // =======================================================
(PID.TID 0000.0001) // End OBCS MONITOR field statistics
(PID.TID 0000.0001) // =======================================================
 cg2d: Sum(rhs),rhsMax =   3.01243519290291E+00  4.53053337637305E+02
(PID.TID 0000.0001)      cg2d_init_res =   2.70332002250776E-06
(PID.TID 0000.0001)      cg2d_iters(min,last) =      -1      67
(PID.TID 0000.0001)      cg2d_last_res =   9.35134750292284E-12
(PID.TID 0000.0001) // =======================================================
(PID.TID 0000.0001) // Begin MONITOR dynamic field statistics
(PID.TID 0000.0001) // =======================================================
(PID.TID 0000.0001) %MON time_tsnumber                =                   183
(PID.TID 0000.0001) %MON time_secondsf                =   1.8300000000000E+04
(PID.TID 0000.0001) %MON dynstat_eta_max              =   5.7960316365794E+00
(PID.TID 0000.0001) %MON dynstat_eta_min              =  -1.4177825134094E+01
(PID.TID 0000.0001) %MON dynstat_eta_mean             =  -2.5273959602977E+00
(PID.TID 0000.0001) %MON dynstat_eta_sd               =   4.9420818545849E+00
(PID.TID 0000.0001) %MON dynstat_eta_del2             =   1.9058059410967E-01
(PID.TID 0000.0001) %MON dynstat_uvel_max             =   2.5246992732697E-03
(PID.TID 0000.0001) %MON dynstat_uvel_min             =  -3.2979395098960E-03
(PID.TID 0000.0001) %MON dynstat_uvel_mean            =  -1.8652013888379E-08
(PID.TID 0000.0001) %MON dynstat_uvel_sd              =   7.4343780925062E-05
(PID.TID 0000.0001) %MON dynstat_uvel_del2            =   4.0559713889895E-07
(PID.TID 0000.0001) %MON dynstat_vvel_max             =   3.0743571073595E-03
(PID.TID 0000.0001) %MON dynstat_vvel_min             =  -2.2546875897742E-03
(PID.TID 0000.0001) %MON dynstat_vvel_mean            =  -3.5631611311044E-07
(PID.TID 0000.0001) %MON dynstat_vvel_sd              =   9.4285316318587E-05
(PID.TID 0000.0001) %MON dynstat_vvel_del2            =   4.6485734616845E-07
(PID.TID 0000.0001) %MON dynstat_wvel_max             =   2.1750958199211E-04
(PID.TID 0000.0001) %MON dynstat_wvel_min             =  -1.5644998675312E-04
(PID.TID 0000.0001) %MON dynstat_wvel_mean            =   3.3912543459647E-09
(PID.TID 0000.0001) %MON dynstat_wvel_sd              =   2.4294743626359E-05
(PID.TID 0000.0001) %MON dynstat_wvel_del2            =   1.2972543390698E-07
(PID.TID 0000.0001) %MON dynstat_theta_max            =   1.2000000000000E+00
(PID.TID 0000.0001) %MON dynstat_theta_min            =  -1.0000000000000E+00
(PID.TID 0000.0001) %MON dynstat_theta_mean           =   5.6546777672134E-01
(PID.TID 0000.0001) %MON dynstat_theta_sd             =   8.4906074208594E-01
(PID.TID 0000.0001) %MON dynstat_theta_del2           =   1.6994287281320E-06
(PID.TID 0000.0001) %MON dynstat_salt_max             =   3.4700000000000E+01
(PID.TID 0000.0001) %MON dynstat_salt_min             =   3.4000000000000E+01
(PID.TID 0000.0001) %MON dynstat_salt_mean            =   3.4498100451167E+01
(PID.TID 0000.0001) %MON dynstat_salt_sd              =   2.7015603791790E-01
(PID.TID 0000.0001) %MON dynstat_salt_del2            =   5.3101474199808E-07
(PID.TID 0000.0001) %MON advcfl_uvel_max              =   3.2979395098960E-04
(PID.TID 0000.0001) %MON advcfl_vvel_max              =   3.0743571073595E-04
(PID.TID 0000.0001) %MON advcfl_wvel_max              =   1.0875479099606E-03
(PID.TID 0000.0001) %MON advcfl_W_hf_max              =   1.0875479099606E-03
(PID.TID 0000.0001) %MON pe_b_mean                    =  -6.8290879495778E-01
(PID.TID 0000.0001) %MON ke_max                       =   5.5503472615047E-06
(PID.TID 0000.0001) %MON ke_mean                      =   7.1563257673013E-09
(PID.TID 0000.0001) %MON ke_vol                       =   4.6182872528316E+12
(PID.TID 0000.0001) // =======================================================
(PID.TID 0000.0001) // End MONITOR dynamic field statistics
(PID.TID 0000.0001) // =======================================================
(PID.TID 0000.0001) // =======================================================
(PID.TID 0000.0001) // Begin OBCS MONITOR field statistics
(PID.TID 0000.0001) // =======================================================
(PID.TID 0000.0001) %MON obc_N_vVel_max               =  -6.7128960582209E-07
(PID.TID 0000.0001) %MON obc_N_vVel_min               =  -6.7128960582211E-07
(PID.TID 0000.0001) %MON obc_N_vVel_mean              =  -6.7128960582211E-07
(PID.TID 0000.0001) %MON obc_N_vVel_sd                =  -7.0177066128461E-27
(PID.TID 0000.0001) %MON obc_N_vVel_Int               =  -4.4305113984259E+01
(PID.TID 0000.0001) // =======================================================
(PID.TID 0000.0001) // End OBCS MONITOR field statistics
(PID.TID 0000.0001) // =======================================================
 cg2d: Sum(rhs),rhsMax =   3.01243270387295E+00  4.53053327148624E+02
(PID.TID 0000.0001)      cg2d_init_res =   2.68224548651679E-06
(PID.TID 0000.0001)      cg2d_iters(min,last) =      -1      66
(PID.TID 0000.0001)      cg2d_last_res =   9.08080250387194E-12
(PID.TID 0000.0001) // =======================================================
(PID.TID 0000.0001) // Begin MONITOR dynamic field statistics
(PID.TID 0000.0001) // =======================================================
(PID.TID 0000.0001) %MON time_tsnumber                =                   184
(PID.TID 0000.0001) %MON time_secondsf                =   1.8400000000000E+04
(PID.TID 0000.0001) %MON dynstat_eta_max              =   5.7960339841117E+00
(PID.TID 0000.0001) %MON dynstat_eta_min              =  -1.4177820235390E+01
(PID.TID 0000.0001) %MON dynstat_eta_mean             =  -2.5273938135203E+00
(PID.TID 0000.0001) %MON dynstat_eta_sd               =   4.9420814661308E+00
(PID.TID 0000.0001) %MON dynstat_eta_del2             =   1.9058059367177E-01
(PID.TID 0000.0001) %MON dynstat_uvel_max             =   2.5245131313998E-03
(PID.TID 0000.0001) %MON dynstat_uvel_min             =  -3.3069647697521E-03
(PID.TID 0000.0001) %MON dynstat_uvel_mean            =  -1.7644114494254E-08
(PID.TID 0000.0001) %MON dynstat_uvel_sd              =   7.4462403220820E-05
(PID.TID 0000.0001) %MON dynstat_uvel_del2            =   4.0493671542991E-07
(PID.TID 0000.0001) %MON dynstat_vvel_max             =   3.0818635479948E-03
(PID.TID 0000.0001) %MON dynstat_vvel_min             =  -2.2516532729888E-03
(PID.TID 0000.0001) %MON dynstat_vvel_mean            =   2.4264572603707E-08
(PID.TID 0000.0001) %MON dynstat_vvel_sd              =   9.4318163599998E-05
(PID.TID 0000.0001) %MON dynstat_vvel_del2            =   4.6342176277266E-07
(PID.TID 0000.0001) %MON dynstat_wvel_max             =   2.1769572389710E-04
(PID.TID 0000.0001) %MON dynstat_wvel_min             =  -1.5608628630237E-04
(PID.TID 0000.0001) %MON dynstat_wvel_mean            =   3.2435671136855E-09
(PID.TID 0000.0001) %MON dynstat_wvel_sd              =   2.4175481387280E-05
(PID.TID 0000.0001) %MON dynstat_wvel_del2            =   1.2854130454325E-07
(PID.TID 0000.0001) %MON dynstat_theta_max            =   1.2000000000000E+00
(PID.TID 0000.0001) %MON dynstat_theta_min            =  -1.0000000000000E+00
(PID.TID 0000.0001) %MON dynstat_theta_mean           =   5.6546757427331E-01
(PID.TID 0000.0001) %MON dynstat_theta_sd             =   8.4906069865531E-01
(PID.TID 0000.0001) %MON dynstat_theta_del2           =   1.6917742449900E-06
(PID.TID 0000.0001) %MON dynstat_salt_max             =   3.4700000000000E+01
(PID.TID 0000.0001) %MON dynstat_salt_min             =   3.4000000000000E+01
(PID.TID 0000.0001) %MON dynstat_salt_mean            =   3.4498100370902E+01
(PID.TID 0000.0001) %MON dynstat_salt_sd              =   2.7015602584688E-01
(PID.TID 0000.0001) %MON dynstat_salt_del2            =   5.2865679650128E-07
(PID.TID 0000.0001) %MON advcfl_uvel_max              =   3.3069647697521E-04
(PID.TID 0000.0001) %MON advcfl_vvel_max              =   3.0818635479948E-04
(PID.TID 0000.0001) %MON advcfl_wvel_max              =   1.0884786194855E-03
(PID.TID 0000.0001) %MON advcfl_W_hf_max              =   1.0884786194855E-03
(PID.TID 0000.0001) %MON pe_b_mean                    =  -6.8290833920897E-01
(PID.TID 0000.0001) %MON ke_max                       =   5.5671024784047E-06
(PID.TID 0000.0001) %MON ke_mean                      =   7.1680212534678E-09
(PID.TID 0000.0001) %MON ke_vol                       =   4.6182872679958E+12
(PID.TID 0000.0001) // =======================================================
(PID.TID 0000.0001) // End MONITOR dynamic field statistics
(PID.TID 0000.0001) // =======================================================
(PID.TID 0000.0001) // =======================================================
(PID.TID 0000.0001) // Begin OBCS MONITOR field statistics
(PID.TID 0000.0001) // =======================================================
(PID.TID 0000.0001) %MON obc_N_vVel_max               =  -3.0573210966178E-07
(PID.TID 0000.0001) %MON obc_N_vVel_min               =  -3.0573210966179E-07
(PID.TID 0000.0001) %MON obc_N_vVel_mean              =  -3.0573210966178E-07
(PID.TID 0000.0001) %MON obc_N_vVel_sd                =   3.9561345224328E-14
(PID.TID 0000.0001) %MON obc_N_vVel_Int               =  -2.0178319237678E+01
(PID.TID 0000.0001) // =======================================================
(PID.TID 0000.0001) // End OBCS MONITOR field statistics
(PID.TID 0000.0001) // =======================================================
 cg2d: Sum(rhs),rhsMax =   3.01243067444359E+00  4.53053316198665E+02
(PID.TID 0000.0001)      cg2d_init_res =   2.65930033866316E-06
(PID.TID 0000.0001)      cg2d_iters(min,last) =      -1      65
(PID.TID 0000.0001)      cg2d_last_res =   9.57661166519845E-12
(PID.TID 0000.0001) // =======================================================
(PID.TID 0000.0001) // Begin MONITOR dynamic field statistics
(PID.TID 0000.0001) // =======================================================
(PID.TID 0000.0001) %MON time_tsnumber                =                   185
(PID.TID 0000.0001) %MON time_secondsf                =   1.8500000000000E+04
(PID.TID 0000.0001) %MON dynstat_eta_max              =   5.7960357564530E+00
(PID.TID 0000.0001) %MON dynstat_eta_min              =  -1.4177816053808E+01
(PID.TID 0000.0001) %MON dynstat_eta_mean             =  -2.5273920497690E+00
(PID.TID 0000.0001) %MON dynstat_eta_sd               =   4.9420811775123E+00
(PID.TID 0000.0001) %MON dynstat_eta_del2             =   1.9058059323114E-01
(PID.TID 0000.0001) %MON dynstat_uvel_max             =   2.5241523480890E-03
(PID.TID 0000.0001) %MON dynstat_uvel_min             =  -3.3158439239791E-03
(PID.TID 0000.0001) %MON dynstat_uvel_mean            =  -1.6178136193930E-08
(PID.TID 0000.0001) %MON dynstat_uvel_sd              =   7.4581552992617E-05
(PID.TID 0000.0001) %MON dynstat_uvel_del2            =   4.0426626993607E-07
(PID.TID 0000.0001) %MON dynstat_vvel_max             =   3.0892254497683E-03
(PID.TID 0000.0001) %MON dynstat_vvel_min             =  -2.2484729329069E-03
(PID.TID 0000.0001) %MON dynstat_vvel_mean            =   3.7333383024600E-07
(PID.TID 0000.0001) %MON dynstat_vvel_sd              =   9.4351307493494E-05
(PID.TID 0000.0001) %MON dynstat_vvel_del2            =   4.6201636205151E-07
(PID.TID 0000.0001) %MON dynstat_wvel_max             =   2.1787075520512E-04
(PID.TID 0000.0001) %MON dynstat_wvel_min             =  -1.5265913265845E-04
(PID.TID 0000.0001) %MON dynstat_wvel_mean            =   3.0140825222324E-09
(PID.TID 0000.0001) %MON dynstat_wvel_sd              =   2.4057322933832E-05
(PID.TID 0000.0001) %MON dynstat_wvel_del2            =   1.2739277566834E-07
(PID.TID 0000.0001) %MON dynstat_theta_max            =   1.2000000000000E+00
(PID.TID 0000.0001) %MON dynstat_theta_min            =  -1.0000000000000E+00
(PID.TID 0000.0001) %MON dynstat_theta_mean           =   5.6546737197046E-01
(PID.TID 0000.0001) %MON dynstat_theta_sd             =   8.4906065510069E-01
(PID.TID 0000.0001) %MON dynstat_theta_del2           =   1.6841494297278E-06
(PID.TID 0000.0001) %MON dynstat_salt_max             =   3.4700000000000E+01
(PID.TID 0000.0001) %MON dynstat_salt_min             =   3.4000000000000E+01
(PID.TID 0000.0001) %MON dynstat_salt_mean            =   3.4498100290684E+01
(PID.TID 0000.0001) %MON dynstat_salt_sd              =   2.7015601373429E-01
(PID.TID 0000.0001) %MON dynstat_salt_del2            =   5.2631025287325E-07
(PID.TID 0000.0001) %MON advcfl_uvel_max              =   3.3158439239791E-04
(PID.TID 0000.0001) %MON advcfl_vvel_max              =   3.0892254497683E-04
(PID.TID 0000.0001) %MON advcfl_wvel_max              =   1.0893537760256E-03
(PID.TID 0000.0001) %MON advcfl_W_hf_max              =   1.0893537760256E-03
(PID.TID 0000.0001) %MON pe_b_mean                    =  -6.8290795578334E-01
(PID.TID 0000.0001) %MON ke_max                       =   5.5833495273026E-06
(PID.TID 0000.0001) %MON ke_mean                      =   7.1799298328835E-09
(PID.TID 0000.0001) %MON ke_vol                       =   4.6182872807477E+12
(PID.TID 0000.0001) // =======================================================
(PID.TID 0000.0001) // End MONITOR dynamic field statistics
(PID.TID 0000.0001) // =======================================================
(PID.TID 0000.0001) // =======================================================
(PID.TID 0000.0001) // Begin OBCS MONITOR field statistics
(PID.TID 0000.0001) // =======================================================
(PID.TID 0000.0001) %MON obc_N_vVel_max               =   3.9034651812002E-08
(PID.TID 0000.0001) %MON obc_N_vVel_min               =   3.9034651812001E-08
(PID.TID 0000.0001) %MON obc_N_vVel_mean              =   3.9034651812001E-08
(PID.TID 0000.0001) %MON obc_N_vVel_sd                =   7.4970887347688E-15
(PID.TID 0000.0001) %MON obc_N_vVel_Int               =   2.5762870195921E+00
(PID.TID 0000.0001) // =======================================================
(PID.TID 0000.0001) // End OBCS MONITOR field statistics
(PID.TID 0000.0001) // =======================================================
 cg2d: Sum(rhs),rhsMax =   3.01242906504063E+00  4.53053304858797E+02
(PID.TID 0000.0001)      cg2d_init_res =   2.63649013235914E-06
(PID.TID 0000.0001)      cg2d_iters(min,last) =      -1      64
(PID.TID 0000.0001)      cg2d_last_res =   8.67323380773675E-12
(PID.TID 0000.0001) // =======================================================
(PID.TID 0000.0001) // Begin MONITOR dynamic field statistics
(PID.TID 0000.0001) // =======================================================
(PID.TID 0000.0001) %MON time_tsnumber                =                   186
(PID.TID 0000.0001) %MON time_secondsf                =   1.8600000000000E+04
(PID.TID 0000.0001) %MON dynstat_eta_max              =   5.7960370178923E+00
(PID.TID 0000.0001) %MON dynstat_eta_min              =  -1.4177812495840E+01
(PID.TID 0000.0001) %MON dynstat_eta_mean             =  -2.5273906362395E+00
(PID.TID 0000.0001) %MON dynstat_eta_sd               =   4.9420809710353E+00
(PID.TID 0000.0001) %MON dynstat_eta_del2             =   1.9058059279377E-01
(PID.TID 0000.0001) %MON dynstat_uvel_max             =   2.5236174827992E-03
(PID.TID 0000.0001) %MON dynstat_uvel_min             =  -3.3245777761801E-03
(PID.TID 0000.0001) %MON dynstat_uvel_mean            =  -1.4331668986378E-08
(PID.TID 0000.0001) %MON dynstat_uvel_sd              =   7.4701284399661E-05
(PID.TID 0000.0001) %MON dynstat_uvel_del2            =   4.0358614201339E-07
(PID.TID 0000.0001) %MON dynstat_vvel_max             =   3.0964401624880E-03
(PID.TID 0000.0001) %MON dynstat_vvel_min             =  -2.2451534892145E-03
(PID.TID 0000.0001) %MON dynstat_vvel_mean            =   6.8281098781389E-07
(PID.TID 0000.0001) %MON dynstat_vvel_sd              =   9.4389016785028E-05
(PID.TID 0000.0001) %MON dynstat_vvel_del2            =   4.6070328608967E-07
(PID.TID 0000.0001) %MON dynstat_wvel_max             =   2.1803489506102E-04
(PID.TID 0000.0001) %MON dynstat_wvel_min             =  -1.4622704510043E-04
(PID.TID 0000.0001) %MON dynstat_wvel_mean            =   2.7155230890255E-09
(PID.TID 0000.0001) %MON dynstat_wvel_sd              =   2.3948010676882E-05
(PID.TID 0000.0001) %MON dynstat_wvel_del2            =   1.2637830765364E-07
(PID.TID 0000.0001) %MON dynstat_theta_max            =   1.2000000000000E+00
(PID.TID 0000.0001) %MON dynstat_theta_min            =  -1.0000000000000E+00
(PID.TID 0000.0001) %MON dynstat_theta_mean           =   5.6546716980340E-01
(PID.TID 0000.0001) %MON dynstat_theta_sd             =   8.4906061145044E-01
(PID.TID 0000.0001) %MON dynstat_theta_del2           =   1.6765075297183E-06
(PID.TID 0000.0001) %MON dynstat_salt_max             =   3.4700000000000E+01
(PID.TID 0000.0001) %MON dynstat_salt_min             =   3.4000000000000E+01
(PID.TID 0000.0001) %MON dynstat_salt_mean            =   3.4498100210508E+01
(PID.TID 0000.0001) %MON dynstat_salt_sd              =   2.7015600158923E-01
(PID.TID 0000.0001) %MON dynstat_salt_del2            =   5.2395978219261E-07
(PID.TID 0000.0001) %MON advcfl_uvel_max              =   3.3245777761801E-04
(PID.TID 0000.0001) %MON advcfl_vvel_max              =   3.0964401624880E-04
(PID.TID 0000.0001) %MON advcfl_wvel_max              =   1.0901744753051E-03
(PID.TID 0000.0001) %MON advcfl_W_hf_max              =   1.0901744753051E-03
(PID.TID 0000.0001) %MON pe_b_mean                    =  -6.8290763591943E-01
(PID.TID 0000.0001) %MON ke_max                       =   5.5990861142588E-06
(PID.TID 0000.0001) %MON ke_mean                      =   7.1924202249945E-09
(PID.TID 0000.0001) %MON ke_vol                       =   4.6182872912244E+12
(PID.TID 0000.0001) // =======================================================
(PID.TID 0000.0001) // End MONITOR dynamic field statistics
(PID.TID 0000.0001) // =======================================================
(PID.TID 0000.0001) // =======================================================
(PID.TID 0000.0001) // Begin OBCS MONITOR field statistics
(PID.TID 0000.0001) // =======================================================
(PID.TID 0000.0001) %MON obc_N_vVel_max               =   3.5427782371969E-07
(PID.TID 0000.0001) %MON obc_N_vVel_min               =   3.5427782371969E-07
(PID.TID 0000.0001) %MON obc_N_vVel_mean              =   3.5427782371969E-07
(PID.TID 0000.0001) %MON obc_N_vVel_sd                =   9.8198959798063E-14
(PID.TID 0000.0001) %MON obc_N_vVel_Int               =   2.3382336365499E+01
(PID.TID 0000.0001) // =======================================================
(PID.TID 0000.0001) // End OBCS MONITOR field statistics
(PID.TID 0000.0001) // =======================================================
 cg2d: Sum(rhs),rhsMax =   3.01242782646877E+00  4.53053293207575E+02
(PID.TID 0000.0001)      cg2d_init_res =   2.61619349750147E-06
(PID.TID 0000.0001)      cg2d_iters(min,last) =      -1      63
(PID.TID 0000.0001)      cg2d_last_res =   8.83934337496924E-12
(PID.TID 0000.0001) // =======================================================
(PID.TID 0000.0001) // Begin MONITOR dynamic field statistics
(PID.TID 0000.0001) // =======================================================
(PID.TID 0000.0001) %MON time_tsnumber                =                   187
(PID.TID 0000.0001) %MON time_secondsf                =   1.8700000000000E+04
(PID.TID 0000.0001) %MON dynstat_eta_max              =   5.7960378438436E+00
(PID.TID 0000.0001) %MON dynstat_eta_min              =  -1.4177809450979E+01
(PID.TID 0000.0001) %MON dynstat_eta_mean             =  -2.5273895320960E+00
(PID.TID 0000.0001) %MON dynstat_eta_sd               =   4.9420808278603E+00
(PID.TID 0000.0001) %MON dynstat_eta_del2             =   1.9058059236285E-01
(PID.TID 0000.0001) %MON dynstat_uvel_max             =   2.5229091912227E-03
(PID.TID 0000.0001) %MON dynstat_uvel_min             =  -3.3331671812180E-03
(PID.TID 0000.0001) %MON dynstat_uvel_mean            =  -1.2188466489712E-08
(PID.TID 0000.0001) %MON dynstat_uvel_sd              =   7.4821649962704E-05
(PID.TID 0000.0001) %MON dynstat_uvel_del2            =   4.0289667072079E-07
(PID.TID 0000.0001) %MON dynstat_vvel_max             =   3.1035060563980E-03
(PID.TID 0000.0001) %MON dynstat_vvel_min             =  -2.2417003779687E-03
(PID.TID 0000.0001) %MON dynstat_vvel_mean            =   9.4640479132957E-07
(PID.TID 0000.0001) %MON dynstat_vvel_sd              =   9.4434848579640E-05
(PID.TID 0000.0001) %MON dynstat_vvel_del2            =   4.5953107422492E-07
(PID.TID 0000.0001) %MON dynstat_wvel_max             =   2.1818830547003E-04
(PID.TID 0000.0001) %MON dynstat_wvel_min             =  -1.3691169552633E-04
(PID.TID 0000.0001) %MON dynstat_wvel_mean            =   2.3622081465582E-09
(PID.TID 0000.0001) %MON dynstat_wvel_sd              =   2.3853999293039E-05
(PID.TID 0000.0001) %MON dynstat_wvel_del2            =   1.2557765551904E-07
(PID.TID 0000.0001) %MON dynstat_theta_max            =   1.2000000000000E+00
(PID.TID 0000.0001) %MON dynstat_theta_min            =  -1.0000000000000E+00
(PID.TID 0000.0001) %MON dynstat_theta_mean           =   5.6546696775946E-01
(PID.TID 0000.0001) %MON dynstat_theta_sd             =   8.4906056775640E-01
(PID.TID 0000.0001) %MON dynstat_theta_del2           =   1.6688138935071E-06
(PID.TID 0000.0001) %MON dynstat_salt_max             =   3.4700000000000E+01
(PID.TID 0000.0001) %MON dynstat_salt_min             =   3.4000000000000E+01
(PID.TID 0000.0001) %MON dynstat_salt_mean            =   3.4498100130371E+01
(PID.TID 0000.0001) %MON dynstat_salt_sd              =   2.7015598942821E-01
(PID.TID 0000.0001) %MON dynstat_salt_del2            =   5.2159428525359E-07
(PID.TID 0000.0001) %MON advcfl_uvel_max              =   3.3331671812180E-04
(PID.TID 0000.0001) %MON advcfl_vvel_max              =   3.1035060563980E-04
(PID.TID 0000.0001) %MON advcfl_wvel_max              =   1.0909415273502E-03
(PID.TID 0000.0001) %MON advcfl_W_hf_max              =   1.0909415273502E-03
(PID.TID 0000.0001) %MON pe_b_mean                    =  -6.8290736961397E-01
(PID.TID 0000.0001) %MON ke_max                       =   5.6143114243296E-06
(PID.TID 0000.0001) %MON ke_mean                      =   7.2057904087388E-09
(PID.TID 0000.0001) %MON ke_vol                       =   4.6182872996207E+12
(PID.TID 0000.0001) // =======================================================
(PID.TID 0000.0001) // End MONITOR dynamic field statistics
(PID.TID 0000.0001) // =======================================================
(PID.TID 0000.0001) // =======================================================
(PID.TID 0000.0001) // Begin OBCS MONITOR field statistics
(PID.TID 0000.0001) // =======================================================
(PID.TID 0000.0001) %MON obc_N_vVel_max               =   6.3276750711836E-07
(PID.TID 0000.0001) %MON obc_N_vVel_min               =   6.3276750711835E-07
(PID.TID 0000.0001) %MON obc_N_vVel_mean              =   6.3276750711836E-07
(PID.TID 0000.0001) %MON obc_N_vVel_sd                =   4.6593403086362E-14
(PID.TID 0000.0001) %MON obc_N_vVel_Int               =   4.1762655469812E+01
(PID.TID 0000.0001) // =======================================================
(PID.TID 0000.0001) // End OBCS MONITOR field statistics
(PID.TID 0000.0001) // =======================================================
 cg2d: Sum(rhs),rhsMax =   3.01242690215101E+00  4.53053281328336E+02
(PID.TID 0000.0001)      cg2d_init_res =   2.59996546519146E-06
(PID.TID 0000.0001)      cg2d_iters(min,last) =      -1      63
(PID.TID 0000.0001)      cg2d_last_res =   8.91226415789990E-12
(PID.TID 0000.0001) // =======================================================
(PID.TID 0000.0001) // Begin MONITOR dynamic field statistics
(PID.TID 0000.0001) // =======================================================
(PID.TID 0000.0001) %MON time_tsnumber                =                   188
(PID.TID 0000.0001) %MON time_secondsf                =   1.8800000000000E+04
(PID.TID 0000.0001) %MON dynstat_eta_max              =   5.7960383180142E+00
(PID.TID 0000.0001) %MON dynstat_eta_min              =  -1.4177806804283E+01
(PID.TID 0000.0001) %MON dynstat_eta_mean             =  -2.5273886903357E+00
(PID.TID 0000.0001) %MON dynstat_eta_sd               =   4.9420807287668E+00
(PID.TID 0000.0001) %MON dynstat_eta_del2             =   1.9058059194559E-01
(PID.TID 0000.0001) %MON dynstat_uvel_max             =   2.5220281646270E-03
(PID.TID 0000.0001) %MON dynstat_uvel_min             =  -3.3416129822024E-03
(PID.TID 0000.0001) %MON dynstat_uvel_mean            =  -9.8351138724721E-09
(PID.TID 0000.0001) %MON dynstat_uvel_sd              =   7.4942700580831E-05
(PID.TID 0000.0001) %MON dynstat_uvel_del2            =   4.0219819448874E-07
(PID.TID 0000.0001) %MON dynstat_vvel_max             =   3.1104224167029E-03
(PID.TID 0000.0001) %MON dynstat_vvel_min             =  -2.2381177088295E-03
(PID.TID 0000.0001) %MON dynstat_vvel_mean            =   1.1596758894535E-06
(PID.TID 0000.0001) %MON dynstat_vvel_sd              =   9.4491206610943E-05
(PID.TID 0000.0001) %MON dynstat_vvel_del2            =   4.5852874821863E-07
(PID.TID 0000.0001) %MON dynstat_wvel_max             =   2.1833119035684E-04
(PID.TID 0000.0001) %MON dynstat_wvel_min             =  -1.2546775078822E-04
(PID.TID 0000.0001) %MON dynstat_wvel_mean            =   1.9686395384620E-09
(PID.TID 0000.0001) %MON dynstat_wvel_sd              =   2.3779616823328E-05
(PID.TID 0000.0001) %MON dynstat_wvel_del2            =   1.2504087620630E-07
(PID.TID 0000.0001) %MON dynstat_theta_max            =   1.2000000000000E+00
(PID.TID 0000.0001) %MON dynstat_theta_min            =  -1.0000000000000E+00
(PID.TID 0000.0001) %MON dynstat_theta_mean           =   5.6546676582302E-01
(PID.TID 0000.0001) %MON dynstat_theta_sd             =   8.4906052404409E-01
(PID.TID 0000.0001) %MON dynstat_theta_del2           =   1.6610513819042E-06
(PID.TID 0000.0001) %MON dynstat_salt_max             =   3.4700000000000E+01
(PID.TID 0000.0001) %MON dynstat_salt_min             =   3.4000000000000E+01
(PID.TID 0000.0001) %MON dynstat_salt_mean            =   3.4498100050268E+01
(PID.TID 0000.0001) %MON dynstat_salt_sd              =   2.7015597725915E-01
(PID.TID 0000.0001) %MON dynstat_salt_del2            =   5.1920805229052E-07
(PID.TID 0000.0001) %MON advcfl_uvel_max              =   3.3416129822024E-04
(PID.TID 0000.0001) %MON advcfl_vvel_max              =   3.1104224167029E-04
(PID.TID 0000.0001) %MON advcfl_wvel_max              =   1.0916559517842E-03
(PID.TID 0000.0001) %MON advcfl_W_hf_max              =   1.0916559517842E-03
(PID.TID 0000.0001) %MON pe_b_mean                    =  -6.8290714601202E-01
(PID.TID 0000.0001) %MON ke_max                       =   5.6290258536336E-06
(PID.TID 0000.0001) %MON ke_mean                      =   7.2202314058657E-09
(PID.TID 0000.0001) %MON ke_vol                       =   4.6182873061794E+12
(PID.TID 0000.0001) // =======================================================
(PID.TID 0000.0001) // End MONITOR dynamic field statistics
(PID.TID 0000.0001) // =======================================================
(PID.TID 0000.0001) // =======================================================
(PID.TID 0000.0001) // Begin OBCS MONITOR field statistics
(PID.TID 0000.0001) // =======================================================
(PID.TID 0000.0001) %MON obc_N_vVel_max               =   8.6895376845549E-07
(PID.TID 0000.0001) %MON obc_N_vVel_min               =   8.6895376845547E-07
(PID.TID 0000.0001) %MON obc_N_vVel_mean              =   8.6895376845549E-07
(PID.TID 0000.0001) %MON obc_N_vVel_sd                =  -2.3022116657970E-26
(PID.TID 0000.0001) %MON obc_N_vVel_Int               =   5.7350948718063E+01
(PID.TID 0000.0001) // =======================================================
(PID.TID 0000.0001) // End OBCS MONITOR field statistics
(PID.TID 0000.0001) // =======================================================
 cg2d: Sum(rhs),rhsMax =   3.01242623034957E+00  4.53053269307935E+02
(PID.TID 0000.0001)      cg2d_init_res =   2.58882635828363E-06
(PID.TID 0000.0001)      cg2d_iters(min,last) =      -1      60
(PID.TID 0000.0001)      cg2d_last_res =   9.98621486820377E-12
(PID.TID 0000.0001) // =======================================================
(PID.TID 0000.0001) // Begin MONITOR dynamic field statistics
(PID.TID 0000.0001) // =======================================================
(PID.TID 0000.0001) %MON time_tsnumber                =                   189
(PID.TID 0000.0001) %MON time_secondsf                =   1.8900000000000E+04
(PID.TID 0000.0001) %MON dynstat_eta_max              =   5.7960385269571E+00
(PID.TID 0000.0001) %MON dynstat_eta_min              =  -1.4177804435813E+01
(PID.TID 0000.0001) %MON dynstat_eta_mean             =  -2.5273880596460E+00
(PID.TID 0000.0001) %MON dynstat_eta_sd               =   4.9420806545903E+00
(PID.TID 0000.0001) %MON dynstat_eta_del2             =   1.9058059154653E-01
(PID.TID 0000.0001) %MON dynstat_uvel_max             =   2.5209752415343E-03
(PID.TID 0000.0001) %MON dynstat_uvel_min             =  -3.3499161324519E-03
(PID.TID 0000.0001) %MON dynstat_uvel_mean            =  -7.3560284018582E-09
(PID.TID 0000.0001) %MON dynstat_uvel_sd              =   7.5064485711341E-05
(PID.TID 0000.0001) %MON dynstat_uvel_del2            =   4.0149105030301E-07
(PID.TID 0000.0001) %MON dynstat_vvel_max             =   3.1171893945947E-03
(PID.TID 0000.0001) %MON dynstat_vvel_min             =  -2.2344082354877E-03
(PID.TID 0000.0001) %MON dynstat_vvel_mean            =   1.3200294903481E-06
(PID.TID 0000.0001) %MON dynstat_vvel_sd              =   9.4559065458027E-05
(PID.TID 0000.0001) %MON dynstat_vvel_del2            =   4.5770260373149E-07
(PID.TID 0000.0001) %MON dynstat_wvel_max             =   2.1846365171475E-04
(PID.TID 0000.0001) %MON dynstat_wvel_min             =  -1.1745041892654E-04
(PID.TID 0000.0001) %MON dynstat_wvel_mean            =   1.5495752372375E-09
(PID.TID 0000.0001) %MON dynstat_wvel_sd              =   2.3726525406908E-05
(PID.TID 0000.0001) %MON dynstat_wvel_del2            =   1.2478159565614E-07
(PID.TID 0000.0001) %MON dynstat_theta_max            =   1.2000000000000E+00
(PID.TID 0000.0001) %MON dynstat_theta_min            =  -1.0000000000000E+00
(PID.TID 0000.0001) %MON dynstat_theta_mean           =   5.6546656397633E-01
(PID.TID 0000.0001) %MON dynstat_theta_sd             =   8.4906048035961E-01
(PID.TID 0000.0001) %MON dynstat_theta_del2           =   1.6532187600294E-06
(PID.TID 0000.0001) %MON dynstat_salt_max             =   3.4700000000000E+01
(PID.TID 0000.0001) %MON dynstat_salt_min             =   3.4000000000000E+01
(PID.TID 0000.0001) %MON dynstat_salt_mean            =   3.4498099970193E+01
(PID.TID 0000.0001) %MON dynstat_salt_sd              =   2.7015596509685E-01
(PID.TID 0000.0001) %MON dynstat_salt_del2            =   5.1680067138458E-07
(PID.TID 0000.0001) %MON advcfl_uvel_max              =   3.3499161324519E-04
(PID.TID 0000.0001) %MON advcfl_vvel_max              =   3.1171893945947E-04
(PID.TID 0000.0001) %MON advcfl_wvel_max              =   1.0923182585738E-03
(PID.TID 0000.0001) %MON advcfl_W_hf_max              =   1.0923182585738E-03
(PID.TID 0000.0001) %MON pe_b_mean                    =  -6.8290695379693E-01
(PID.TID 0000.0001) %MON ke_max                       =   5.6432310996929E-06
(PID.TID 0000.0001) %MON ke_mean                      =   7.2358056557216E-09
(PID.TID 0000.0001) %MON ke_vol                       =   4.6182873111794E+12
(PID.TID 0000.0001) // =======================================================
(PID.TID 0000.0001) // End MONITOR dynamic field statistics
(PID.TID 0000.0001) // =======================================================
(PID.TID 0000.0001) // =======================================================
(PID.TID 0000.0001) // Begin OBCS MONITOR field statistics
(PID.TID 0000.0001) // =======================================================
(PID.TID 0000.0001) %MON obc_N_vVel_max               =   1.0589575096198E-06
(PID.TID 0000.0001) %MON obc_N_vVel_min               =   1.0589575096198E-06
(PID.TID 0000.0001) %MON obc_N_vVel_mean              =   1.0589575096198E-06
(PID.TID 0000.0001) %MON obc_N_vVel_sd                =   1.5760600300623E-13
(PID.TID 0000.0001) %MON obc_N_vVel_Int               =   6.9891195634907E+01
(PID.TID 0000.0001) // =======================================================
(PID.TID 0000.0001) // End OBCS MONITOR field statistics
(PID.TID 0000.0001) // =======================================================
 cg2d: Sum(rhs),rhsMax =   3.01242574641848E+00  4.53053257230012E+02
(PID.TID 0000.0001)      cg2d_init_res =   2.58305827066315E-06
(PID.TID 0000.0001)      cg2d_iters(min,last) =      -1      61
(PID.TID 0000.0001)      cg2d_last_res =   8.26793952238942E-12
(PID.TID 0000.0001) // =======================================================
(PID.TID 0000.0001) // Begin MONITOR dynamic field statistics
(PID.TID 0000.0001) // =======================================================
(PID.TID 0000.0001) %MON time_tsnumber                =                   190
(PID.TID 0000.0001) %MON time_secondsf                =   1.9000000000000E+04
(PID.TID 0000.0001) %MON dynstat_eta_max              =   5.7960385636475E+00
(PID.TID 0000.0001) %MON dynstat_eta_min              =  -1.4177802229937E+01
(PID.TID 0000.0001) %MON dynstat_eta_mean             =  -2.5273875862564E+00
(PID.TID 0000.0001) %MON dynstat_eta_sd               =   4.9420805869073E+00
(PID.TID 0000.0001) %MON dynstat_eta_del2             =   1.9058059116976E-01
(PID.TID 0000.0001) %MON dynstat_uvel_max             =   2.5197512958801E-03
(PID.TID 0000.0001) %MON dynstat_uvel_min             =  -3.3580775988957E-03
(PID.TID 0000.0001) %MON dynstat_uvel_mean            =  -4.8393447105396E-09
(PID.TID 0000.0001) %MON dynstat_uvel_sd              =   7.5187053203723E-05
(PID.TID 0000.0001) %MON dynstat_uvel_del2            =   4.0077557408047E-07
(PID.TID 0000.0001) %MON dynstat_vvel_max             =   3.1238080123428E-03
(PID.TID 0000.0001) %MON dynstat_vvel_min             =  -2.2305733519374E-03
(PID.TID 0000.0001) %MON dynstat_vvel_mean            =   1.4266510249381E-06
(PID.TID 0000.0001) %MON dynstat_vvel_sd              =   9.4637891492439E-05
(PID.TID 0000.0001) %MON dynstat_vvel_del2            =   4.5703607067137E-07
(PID.TID 0000.0001) %MON dynstat_wvel_max             =   2.1858579668125E-04
(PID.TID 0000.0001) %MON dynstat_wvel_min             =  -1.1339208533159E-04
(PID.TID 0000.0001) %MON dynstat_wvel_mean            =   1.1195794151498E-09
(PID.TID 0000.0001) %MON dynstat_wvel_sd              =   2.3693563482178E-05
(PID.TID 0000.0001) %MON dynstat_wvel_del2            =   1.2477587280249E-07
(PID.TID 0000.0001) %MON dynstat_theta_max            =   1.2000000000000E+00
(PID.TID 0000.0001) %MON dynstat_theta_min            =  -1.0000000000000E+00
(PID.TID 0000.0001) %MON dynstat_theta_mean           =   5.6546636220013E-01
(PID.TID 0000.0001) %MON dynstat_theta_sd             =   8.4906043667315E-01
(PID.TID 0000.0001) %MON dynstat_theta_del2           =   1.6453337591575E-06
(PID.TID 0000.0001) %MON dynstat_salt_max             =   3.4700000000000E+01
(PID.TID 0000.0001) %MON dynstat_salt_min             =   3.4000000000000E+01
(PID.TID 0000.0001) %MON dynstat_salt_mean            =   3.4498099890139E+01
(PID.TID 0000.0001) %MON dynstat_salt_sd              =   2.7015595293174E-01
(PID.TID 0000.0001) %MON dynstat_salt_del2            =   5.1437774798118E-07
(PID.TID 0000.0001) %MON advcfl_uvel_max              =   3.3580775988957E-04
(PID.TID 0000.0001) %MON advcfl_vvel_max              =   3.1238080123428E-04
(PID.TID 0000.0001) %MON advcfl_wvel_max              =   1.0929289834062E-03
(PID.TID 0000.0001) %MON advcfl_W_hf_max              =   1.0929289834062E-03
(PID.TID 0000.0001) %MON pe_b_mean                    =  -6.8290678156666E-01
(PID.TID 0000.0001) %MON ke_max                       =   5.6569300637078E-06
(PID.TID 0000.0001) %MON ke_mean                      =   7.2524423830774E-09
(PID.TID 0000.0001) %MON ke_vol                       =   4.6182873149257E+12
(PID.TID 0000.0001) // =======================================================
(PID.TID 0000.0001) // End MONITOR dynamic field statistics
(PID.TID 0000.0001) // =======================================================
(PID.TID 0000.0001) // =======================================================
(PID.TID 0000.0001) // Begin OBCS MONITOR field statistics
(PID.TID 0000.0001) // =======================================================
(PID.TID 0000.0001) %MON obc_N_vVel_max               =   1.2005671483004E-06
(PID.TID 0000.0001) %MON obc_N_vVel_min               =   1.2005671483004E-06
(PID.TID 0000.0001) %MON obc_N_vVel_mean              =   1.2005671483004E-06
(PID.TID 0000.0001) %MON obc_N_vVel_sd                =  -3.9581884780369E-26
(PID.TID 0000.0001) %MON obc_N_vVel_Int               =   7.9237431787827E+01
(PID.TID 0000.0001) // =======================================================
(PID.TID 0000.0001) // End OBCS MONITOR field statistics
(PID.TID 0000.0001) // =======================================================
 cg2d: Sum(rhs),rhsMax =   3.01242538499486E+00  4.53053245170600E+02
(PID.TID 0000.0001)      cg2d_init_res =   2.58199240332321E-06
(PID.TID 0000.0001)      cg2d_iters(min,last) =      -1      62
(PID.TID 0000.0001)      cg2d_last_res =   8.55140277737531E-12
(PID.TID 0000.0001) // =======================================================
(PID.TID 0000.0001) // Begin MONITOR dynamic field statistics
(PID.TID 0000.0001) // =======================================================
(PID.TID 0000.0001) %MON time_tsnumber                =                   191
(PID.TID 0000.0001) %MON time_secondsf                =   1.9100000000000E+04
(PID.TID 0000.0001) %MON dynstat_eta_max              =   5.7960385141931E+00
(PID.TID 0000.0001) %MON dynstat_eta_min              =  -1.4177800071680E+01
(PID.TID 0000.0001) %MON dynstat_eta_mean             =  -2.5273872157523E+00
(PID.TID 0000.0001) %MON dynstat_eta_sd               =   4.9420805084645E+00
(PID.TID 0000.0001) %MON dynstat_eta_del2             =   1.9058059081894E-01
(PID.TID 0000.0001) %MON dynstat_uvel_max             =   2.5183573637992E-03
(PID.TID 0000.0001) %MON dynstat_uvel_min             =  -3.3660983923520E-03
(PID.TID 0000.0001) %MON dynstat_uvel_mean            =  -2.3633055684547E-09
(PID.TID 0000.0001) %MON dynstat_uvel_sd              =   7.5310449602690E-05
(PID.TID 0000.0001) %MON dynstat_uvel_del2            =   4.0005209845170E-07
(PID.TID 0000.0001) %MON dynstat_vvel_max             =   3.1302801561397E-03
(PID.TID 0000.0001) %MON dynstat_vvel_min             =  -2.2266133115316E-03
(PID.TID 0000.0001) %MON dynstat_vvel_mean            =   1.4804133910239E-06
(PID.TID 0000.0001) %MON dynstat_vvel_sd              =   9.4725764064367E-05
(PID.TID 0000.0001) %MON dynstat_vvel_del2            =   4.5649258996415E-07
(PID.TID 0000.0001) %MON dynstat_wvel_max             =   2.1869772853925E-04
(PID.TID 0000.0001) %MON dynstat_wvel_min             =  -1.2200874221288E-04
(PID.TID 0000.0001) %MON dynstat_wvel_mean            =   6.9231178711417E-10
(PID.TID 0000.0001) %MON dynstat_wvel_sd              =   2.3676988140463E-05
(PID.TID 0000.0001) %MON dynstat_wvel_del2            =   1.2496685645391E-07
(PID.TID 0000.0001) %MON dynstat_theta_max            =   1.2000000000000E+00
(PID.TID 0000.0001) %MON dynstat_theta_min            =  -1.0000000000000E+00
(PID.TID 0000.0001) %MON dynstat_theta_mean           =   5.6546616047412E-01
(PID.TID 0000.0001) %MON dynstat_theta_sd             =   8.4906039298015E-01
(PID.TID 0000.0001) %MON dynstat_theta_del2           =   1.6374254250318E-06
(PID.TID 0000.0001) %MON dynstat_salt_max             =   3.4700000000000E+01
(PID.TID 0000.0001) %MON dynstat_salt_min             =   3.4000000000000E+01
(PID.TID 0000.0001) %MON dynstat_salt_mean            =   3.4498099810102E+01
(PID.TID 0000.0001) %MON dynstat_salt_sd              =   2.7015594076242E-01
(PID.TID 0000.0001) %MON dynstat_salt_del2            =   5.1194869800841E-07
(PID.TID 0000.0001) %MON advcfl_uvel_max              =   3.3660983923520E-04
(PID.TID 0000.0001) %MON advcfl_vvel_max              =   3.1302801561397E-04
(PID.TID 0000.0001) %MON advcfl_wvel_max              =   1.0934886426963E-03
(PID.TID 0000.0001) %MON advcfl_W_hf_max              =   1.0934886426963E-03
(PID.TID 0000.0001) %MON pe_b_mean                    =  -6.8290661818151E-01
(PID.TID 0000.0001) %MON ke_max                       =   5.6701270006521E-06
(PID.TID 0000.0001) %MON ke_mean                      =   7.2699502302373E-09
(PID.TID 0000.0001) %MON ke_vol                       =   4.6182873177376E+12
(PID.TID 0000.0001) // =======================================================
(PID.TID 0000.0001) // End MONITOR dynamic field statistics
(PID.TID 0000.0001) // =======================================================
(PID.TID 0000.0001) // =======================================================
(PID.TID 0000.0001) // Begin OBCS MONITOR field statistics
(PID.TID 0000.0001) // =======================================================
(PID.TID 0000.0001) %MON obc_N_vVel_max               =   1.2932047796886E-06
(PID.TID 0000.0001) %MON obc_N_vVel_min               =   1.2932047796886E-06
(PID.TID 0000.0001) %MON obc_N_vVel_mean              =   1.2932047796886E-06
(PID.TID 0000.0001) %MON obc_N_vVel_sd                =  -3.3725381420009E-26
(PID.TID 0000.0001) %MON obc_N_vVel_Int               =   8.5351515459449E+01
(PID.TID 0000.0001) // =======================================================
(PID.TID 0000.0001) // End OBCS MONITOR field statistics
(PID.TID 0000.0001) // =======================================================
 cg2d: Sum(rhs),rhsMax =   3.01242508197590E+00  4.53053233201056E+02
(PID.TID 0000.0001)      cg2d_init_res =   2.58468860271610E-06
(PID.TID 0000.0001)      cg2d_iters(min,last) =      -1      61
(PID.TID 0000.0001)      cg2d_last_res =   9.96645103845020E-12
(PID.TID 0000.0001) // =======================================================
(PID.TID 0000.0001) // Begin MONITOR dynamic field statistics
(PID.TID 0000.0001) // =======================================================
(PID.TID 0000.0001) %MON time_tsnumber                =                   192
(PID.TID 0000.0001) %MON time_secondsf                =   1.9200000000000E+04
(PID.TID 0000.0001) %MON dynstat_eta_max              =   5.7960384626909E+00
(PID.TID 0000.0001) %MON dynstat_eta_min              =  -1.4177797849550E+01
(PID.TID 0000.0001) %MON dynstat_eta_mean             =  -2.5273868947502E+00
(PID.TID 0000.0001) %MON dynstat_eta_sd               =   4.9420804036899E+00
(PID.TID 0000.0001) %MON dynstat_eta_del2             =   1.9058059049660E-01
(PID.TID 0000.0001) %MON dynstat_uvel_max             =   2.5167945507345E-03
(PID.TID 0000.0001) %MON dynstat_uvel_min             =  -3.3739795147538E-03
(PID.TID 0000.0001) %MON dynstat_uvel_mean            =   1.1824078883282E-12
(PID.TID 0000.0001) %MON dynstat_uvel_sd              =   7.5434720005751E-05
(PID.TID 0000.0001) %MON dynstat_uvel_del2            =   3.9932095254139E-07
(PID.TID 0000.0001) %MON dynstat_vvel_max             =   3.1366082661606E-03
(PID.TID 0000.0001) %MON dynstat_vvel_min             =  -2.2225273784127E-03
(PID.TID 0000.0001) %MON dynstat_vvel_mean            =   1.4837072311865E-06
(PID.TID 0000.0001) %MON dynstat_vvel_sd              =   9.4819674897537E-05
(PID.TID 0000.0001) %MON dynstat_vvel_del2            =   4.5602099938491E-07
(PID.TID 0000.0001) %MON dynstat_wvel_max             =   2.1879946521958E-04
(PID.TID 0000.0001) %MON dynstat_wvel_min             =  -1.2993161664254E-04
(PID.TID 0000.0001) %MON dynstat_wvel_mean            =   2.8054674099049E-10
(PID.TID 0000.0001) %MON dynstat_wvel_sd              =   2.3671066230229E-05
(PID.TID 0000.0001) %MON dynstat_wvel_del2            =   1.2527414482813E-07
(PID.TID 0000.0001) %MON dynstat_theta_max            =   1.2000000000000E+00
(PID.TID 0000.0001) %MON dynstat_theta_min            =  -1.0000000000000E+00
(PID.TID 0000.0001) %MON dynstat_theta_mean           =   5.6546595877817E-01
(PID.TID 0000.0001) %MON dynstat_theta_sd             =   8.4906034932161E-01
(PID.TID 0000.0001) %MON dynstat_theta_del2           =   1.6295336587802E-06
(PID.TID 0000.0001) %MON dynstat_salt_max             =   3.4700000000000E+01
(PID.TID 0000.0001) %MON dynstat_salt_min             =   3.4000000000000E+01
(PID.TID 0000.0001) %MON dynstat_salt_mean            =   3.4498099730074E+01
(PID.TID 0000.0001) %MON dynstat_salt_sd              =   2.7015592860179E-01
(PID.TID 0000.0001) %MON dynstat_salt_del2            =   5.0952646326760E-07
(PID.TID 0000.0001) %MON advcfl_uvel_max              =   3.3739795147538E-04
(PID.TID 0000.0001) %MON advcfl_vvel_max              =   3.1366082661606E-04
(PID.TID 0000.0001) %MON advcfl_wvel_max              =   1.0939973260979E-03
(PID.TID 0000.0001) %MON advcfl_W_hf_max              =   1.0939973260979E-03
(PID.TID 0000.0001) %MON pe_b_mean                    =  -6.8290645308414E-01
(PID.TID 0000.0001) %MON ke_max                       =   5.6828270158246E-06
(PID.TID 0000.0001) %MON ke_mean                      =   7.2880450893501E-09
(PID.TID 0000.0001) %MON ke_vol                       =   4.6182873199384E+12
(PID.TID 0000.0001) // =======================================================
(PID.TID 0000.0001) // End MONITOR dynamic field statistics
(PID.TID 0000.0001) // =======================================================
(PID.TID 0000.0001) // =======================================================
(PID.TID 0000.0001) // Begin OBCS MONITOR field statistics
(PID.TID 0000.0001) // =======================================================
(PID.TID 0000.0001) %MON obc_N_vVel_max               =   1.3377962467814E-06
(PID.TID 0000.0001) %MON obc_N_vVel_min               =   1.3377962467814E-06
(PID.TID 0000.0001) %MON obc_N_vVel_mean              =   1.3377962467814E-06
(PID.TID 0000.0001) %MON obc_N_vVel_sd                =  -5.8565033603608E-27
(PID.TID 0000.0001) %MON obc_N_vVel_Int               =   8.8294552287573E+01
(PID.TID 0000.0001) // =======================================================
(PID.TID 0000.0001) // End OBCS MONITOR field statistics
(PID.TID 0000.0001) // =======================================================
 cg2d: Sum(rhs),rhsMax =   3.01242477641280E+00  4.53053221382953E+02
(PID.TID 0000.0001)      cg2d_init_res =   2.58917712350416E-06
(PID.TID 0000.0001)      cg2d_iters(min,last) =      -1      61
(PID.TID 0000.0001)      cg2d_last_res =   8.35851705673077E-12
(PID.TID 0000.0001) // =======================================================
(PID.TID 0000.0001) // Begin MONITOR dynamic field statistics
(PID.TID 0000.0001) // =======================================================
(PID.TID 0000.0001) %MON time_tsnumber                =                   193
(PID.TID 0000.0001) %MON time_secondsf                =   1.9300000000000E+04
(PID.TID 0000.0001) %MON dynstat_eta_max              =   5.7960384888141E+00
(PID.TID 0000.0001) %MON dynstat_eta_min              =  -1.4177795470925E+01
(PID.TID 0000.0001) %MON dynstat_eta_mean             =  -2.5273865724586E+00
(PID.TID 0000.0001) %MON dynstat_eta_sd               =   4.9420802589755E+00
(PID.TID 0000.0001) %MON dynstat_eta_del2             =   1.9058059020628E-01
(PID.TID 0000.0001) %MON dynstat_uvel_max             =   2.5150639950020E-03
(PID.TID 0000.0001) %MON dynstat_uvel_min             =  -3.3817220285939E-03
(PID.TID 0000.0001) %MON dynstat_uvel_mean            =   2.1909024627556E-09
(PID.TID 0000.0001) %MON dynstat_uvel_sd              =   7.5559908025381E-05
(PID.TID 0000.0001) %MON dynstat_uvel_del2            =   3.9858246040427E-07
(PID.TID 0000.0001) %MON dynstat_vvel_max             =   3.1427955211152E-03
(PID.TID 0000.0001) %MON dynstat_vvel_min             =  -2.2183137931773E-03
(PID.TID 0000.0001) %MON dynstat_vvel_mean            =   1.4402687118752E-06
(PID.TID 0000.0001) %MON dynstat_vvel_sd              =   9.4915955659518E-05
(PID.TID 0000.0001) %MON dynstat_vvel_del2            =   4.5556260185944E-07
(PID.TID 0000.0001) %MON dynstat_wvel_max             =   2.1889109029331E-04
(PID.TID 0000.0001) %MON dynstat_wvel_min             =  -1.3582541469571E-04
(PID.TID 0000.0001) %MON dynstat_wvel_mean            =  -1.0480721195299E-10
(PID.TID 0000.0001) %MON dynstat_wvel_sd              =   2.3668913649946E-05
(PID.TID 0000.0001) %MON dynstat_wvel_del2            =   1.2560595534185E-07
(PID.TID 0000.0001) %MON dynstat_theta_max            =   1.2000000000000E+00
(PID.TID 0000.0001) %MON dynstat_theta_min            =  -1.0000000000000E+00
(PID.TID 0000.0001) %MON dynstat_theta_mean           =   5.6546575709245E-01
(PID.TID 0000.0001) %MON dynstat_theta_sd             =   8.4906030574277E-01
(PID.TID 0000.0001) %MON dynstat_theta_del2           =   1.6217030731017E-06
(PID.TID 0000.0001) %MON dynstat_salt_max             =   3.4700000000000E+01
(PID.TID 0000.0001) %MON dynstat_salt_min             =   3.4000000000000E+01
(PID.TID 0000.0001) %MON dynstat_salt_mean            =   3.4498099650048E+01
(PID.TID 0000.0001) %MON dynstat_salt_sd              =   2.7015591646432E-01
(PID.TID 0000.0001) %MON dynstat_salt_del2            =   5.0712538398322E-07
(PID.TID 0000.0001) %MON advcfl_uvel_max              =   3.3817220285939E-04
(PID.TID 0000.0001) %MON advcfl_vvel_max              =   3.1427955211152E-04
(PID.TID 0000.0001) %MON advcfl_wvel_max              =   1.0944554514666E-03
(PID.TID 0000.0001) %MON advcfl_W_hf_max              =   1.0944554514666E-03
(PID.TID 0000.0001) %MON pe_b_mean                    =  -6.8290627656709E-01
(PID.TID 0000.0001) %MON ke_max                       =   5.6950362793515E-06
(PID.TID 0000.0001) %MON ke_mean                      =   7.3063889342805E-09
(PID.TID 0000.0001) %MON ke_vol                       =   4.6182873218452E+12
(PID.TID 0000.0001) // =======================================================
(PID.TID 0000.0001) // End MONITOR dynamic field statistics
(PID.TID 0000.0001) // =======================================================
(PID.TID 0000.0001) // =======================================================
(PID.TID 0000.0001) // Begin OBCS MONITOR field statistics
(PID.TID 0000.0001) // =======================================================
(PID.TID 0000.0001) %MON obc_N_vVel_max               =   1.3366751820655E-06
(PID.TID 0000.0001) %MON obc_N_vVel_min               =   1.3366751820654E-06
(PID.TID 0000.0001) %MON obc_N_vVel_mean              =   1.3366751820655E-06
(PID.TID 0000.0001) %MON obc_N_vVel_sd                =  -1.4661453240076E-25
(PID.TID 0000.0001) %MON obc_N_vVel_Int               =   8.8220562016321E+01
(PID.TID 0000.0001) // =======================================================
(PID.TID 0000.0001) // End OBCS MONITOR field statistics
(PID.TID 0000.0001) // =======================================================
 cg2d: Sum(rhs),rhsMax =   3.01242441206741E+00  4.53053209763808E+02
(PID.TID 0000.0001)      cg2d_init_res =   2.59377759344751E-06
(PID.TID 0000.0001)      cg2d_iters(min,last) =      -1      58
(PID.TID 0000.0001)      cg2d_last_res =   9.63143933318959E-12
(PID.TID 0000.0001) // =======================================================
(PID.TID 0000.0001) // Begin MONITOR dynamic field statistics
(PID.TID 0000.0001) // =======================================================
(PID.TID 0000.0001) %MON time_tsnumber                =                   194
(PID.TID 0000.0001) %MON time_secondsf                =   1.9400000000000E+04
(PID.TID 0000.0001) %MON dynstat_eta_max              =   5.7960386622101E+00
(PID.TID 0000.0001) %MON dynstat_eta_min              =  -1.4177792849386E+01
(PID.TID 0000.0001) %MON dynstat_eta_mean             =  -2.5273862019592E+00
(PID.TID 0000.0001) %MON dynstat_eta_sd               =   4.9420800629662E+00
(PID.TID 0000.0001) %MON dynstat_eta_del2             =   1.9058058994970E-01
(PID.TID 0000.0001) %MON dynstat_uvel_max             =   2.5131669766836E-03
(PID.TID 0000.0001) %MON dynstat_uvel_min             =  -3.3893269641814E-03
(PID.TID 0000.0001) %MON dynstat_uvel_mean            =   4.1506919685483E-09
(PID.TID 0000.0001) %MON dynstat_uvel_sd              =   7.5686055855309E-05
(PID.TID 0000.0001) %MON dynstat_uvel_del2            =   3.9783693968411E-07
(PID.TID 0000.0001) %MON dynstat_vvel_max             =   3.1488454946107E-03
(PID.TID 0000.0001) %MON dynstat_vvel_min             =  -2.2139701524928E-03
(PID.TID 0000.0001) %MON dynstat_vvel_mean            =   1.3549549601538E-06
(PID.TID 0000.0001) %MON dynstat_vvel_sd              =   9.5010775858024E-05
(PID.TID 0000.0001) %MON dynstat_vvel_del2            =   4.5505889769675E-07
(PID.TID 0000.0001) %MON dynstat_wvel_max             =   2.1897259113894E-04
(PID.TID 0000.0001) %MON dynstat_wvel_min             =  -1.4202315213565E-04
(PID.TID 0000.0001) %MON dynstat_wvel_mean            =  -4.5394622739300E-10
(PID.TID 0000.0001) %MON dynstat_wvel_sd              =   2.3663443797666E-05
(PID.TID 0000.0001) %MON dynstat_wvel_del2            =   1.2587186017725E-07
(PID.TID 0000.0001) %MON dynstat_theta_max            =   1.2000000000000E+00
(PID.TID 0000.0001) %MON dynstat_theta_min            =  -1.0000000000000E+00
(PID.TID 0000.0001) %MON dynstat_theta_mean           =   5.6546555539832E-01
(PID.TID 0000.0001) %MON dynstat_theta_sd             =   8.4906026226052E-01
(PID.TID 0000.0001) %MON dynstat_theta_del2           =   1.6139759972019E-06
(PID.TID 0000.0001) %MON dynstat_salt_max             =   3.4700000000000E+01
(PID.TID 0000.0001) %MON dynstat_salt_min             =   3.4000000000000E+01
(PID.TID 0000.0001) %MON dynstat_salt_mean            =   3.4498099570020E+01
(PID.TID 0000.0001) %MON dynstat_salt_sd              =   2.7015590435539E-01
(PID.TID 0000.0001) %MON dynstat_salt_del2            =   5.0475918483023E-07
(PID.TID 0000.0001) %MON advcfl_uvel_max              =   3.3893269641814E-04
(PID.TID 0000.0001) %MON advcfl_vvel_max              =   3.1488454946107E-04
(PID.TID 0000.0001) %MON advcfl_wvel_max              =   1.0948629556947E-03
(PID.TID 0000.0001) %MON advcfl_W_hf_max              =   1.0948629556947E-03
(PID.TID 0000.0001) %MON pe_b_mean                    =  -6.8290608000526E-01
(PID.TID 0000.0001) %MON ke_max                       =   5.7067616971499E-06
(PID.TID 0000.0001) %MON ke_mean                      =   7.3246346122657E-09
(PID.TID 0000.0001) %MON ke_vol                       =   4.6182873237596E+12
(PID.TID 0000.0001) // =======================================================
(PID.TID 0000.0001) // End MONITOR dynamic field statistics
(PID.TID 0000.0001) // =======================================================
(PID.TID 0000.0001) // =======================================================
(PID.TID 0000.0001) // Begin OBCS MONITOR field statistics
(PID.TID 0000.0001) // =======================================================
(PID.TID 0000.0001) %MON obc_N_vVel_max               =   1.2933275375310E-06
(PID.TID 0000.0001) %MON obc_N_vVel_min               =   1.2933275375310E-06
(PID.TID 0000.0001) %MON obc_N_vVel_mean              =   1.2933275375310E-06
(PID.TID 0000.0001) %MON obc_N_vVel_sd                =  -7.8759872777266E-27
(PID.TID 0000.0001) %MON obc_N_vVel_Int               =   8.5359617477048E+01
(PID.TID 0000.0001) // =======================================================
(PID.TID 0000.0001) // End OBCS MONITOR field statistics
(PID.TID 0000.0001) // =======================================================
 cg2d: Sum(rhs),rhsMax =   3.01242393877858E+00  4.53053198379010E+02
(PID.TID 0000.0001)      cg2d_init_res =   2.59656336776579E-06
(PID.TID 0000.0001)      cg2d_iters(min,last) =      -1      62
(PID.TID 0000.0001)      cg2d_last_res =   8.41598256646915E-12
(PID.TID 0000.0001) // =======================================================
(PID.TID 0000.0001) // Begin MONITOR dynamic field statistics
(PID.TID 0000.0001) // =======================================================
(PID.TID 0000.0001) %MON time_tsnumber                =                   195
(PID.TID 0000.0001) %MON time_secondsf                =   1.9500000000000E+04
(PID.TID 0000.0001) %MON dynstat_eta_max              =   5.7960390451302E+00
(PID.TID 0000.0001) %MON dynstat_eta_min              =  -1.4177789911589E+01
(PID.TID 0000.0001) %MON dynstat_eta_mean             =  -2.5273857413651E+00
(PID.TID 0000.0001) %MON dynstat_eta_sd               =   4.9420798066781E+00
(PID.TID 0000.0001) %MON dynstat_eta_del2             =   1.9058058972702E-01
(PID.TID 0000.0001) %MON dynstat_uvel_max             =   2.5111048328039E-03
(PID.TID 0000.0001) %MON dynstat_uvel_min             =  -3.3967953176310E-03
(PID.TID 0000.0001) %MON dynstat_uvel_mean            =   5.8436445880582E-09
(PID.TID 0000.0001) %MON dynstat_uvel_sd              =   7.5813204331986E-05
(PID.TID 0000.0001) %MON dynstat_uvel_del2            =   3.9708470049867E-07
(PID.TID 0000.0001) %MON dynstat_vvel_max             =   3.1547621669290E-03
(PID.TID 0000.0001) %MON dynstat_vvel_min             =  -2.2094934567942E-03
(PID.TID 0000.0001) %MON dynstat_vvel_mean            =   1.2335151264129E-06
(PID.TID 0000.0001) %MON dynstat_vvel_sd              =   9.5100641464190E-05
(PID.TID 0000.0001) %MON dynstat_vvel_del2            =   4.5445893981100E-07
(PID.TID 0000.0001) %MON dynstat_wvel_max             =   2.1904401008387E-04
(PID.TID 0000.0001) %MON dynstat_wvel_min             =  -1.4603149024408E-04
(PID.TID 0000.0001) %MON dynstat_wvel_mean            =  -7.5926137048923E-10
(PID.TID 0000.0001) %MON dynstat_wvel_sd              =   2.3648295653221E-05
(PID.TID 0000.0001) %MON dynstat_wvel_del2            =   1.2599426071056E-07
(PID.TID 0000.0001) %MON dynstat_theta_max            =   1.2000000000000E+00
(PID.TID 0000.0001) %MON dynstat_theta_min            =  -1.0000000000000E+00
(PID.TID 0000.0001) %MON dynstat_theta_mean           =   5.6546535367871E-01
(PID.TID 0000.0001) %MON dynstat_theta_sd             =   8.4906021880519E-01
(PID.TID 0000.0001) %MON dynstat_theta_del2           =   1.6063878843642E-06
(PID.TID 0000.0001) %MON dynstat_salt_max             =   3.4700000000000E+01
(PID.TID 0000.0001) %MON dynstat_salt_min             =   3.4000000000000E+01
(PID.TID 0000.0001) %MON dynstat_salt_mean            =   3.4498099489983E+01
(PID.TID 0000.0001) %MON dynstat_salt_sd              =   2.7015589225293E-01
(PID.TID 0000.0001) %MON dynstat_salt_del2            =   5.0243928570559E-07
(PID.TID 0000.0001) %MON advcfl_uvel_max              =   3.3967953176310E-04
(PID.TID 0000.0001) %MON advcfl_vvel_max              =   3.1547621669290E-04
(PID.TID 0000.0001) %MON advcfl_wvel_max              =   1.0952200504193E-03
(PID.TID 0000.0001) %MON advcfl_W_hf_max              =   1.0952200504193E-03
(PID.TID 0000.0001) %MON pe_b_mean                    =  -6.8290585603095E-01
(PID.TID 0000.0001) %MON ke_max                       =   5.7180108426801E-06
(PID.TID 0000.0001) %MON ke_mean                      =   7.3424705346805E-09
(PID.TID 0000.0001) %MON ke_vol                       =   4.6182873259604E+12
(PID.TID 0000.0001) // =======================================================
(PID.TID 0000.0001) // End MONITOR dynamic field statistics
(PID.TID 0000.0001) // =======================================================
(PID.TID 0000.0001) // =======================================================
(PID.TID 0000.0001) // Begin OBCS MONITOR field statistics
(PID.TID 0000.0001) // =======================================================
(PID.TID 0000.0001) %MON obc_N_vVel_max               =   1.2122804133568E-06
(PID.TID 0000.0001) %MON obc_N_vVel_min               =   1.2122804133568E-06
(PID.TID 0000.0001) %MON obc_N_vVel_mean              =   1.2122804133568E-06
(PID.TID 0000.0001) %MON obc_N_vVel_sd                =  -1.3449762889656E-25
(PID.TID 0000.0001) %MON obc_N_vVel_Int               =   8.0010507281551E+01
(PID.TID 0000.0001) // =======================================================
(PID.TID 0000.0001) // End OBCS MONITOR field statistics
(PID.TID 0000.0001) // =======================================================
 cg2d: Sum(rhs),rhsMax =   3.01242331351388E+00  4.53053187245171E+02
(PID.TID 0000.0001)      cg2d_init_res =   2.59608745284599E-06
(PID.TID 0000.0001)      cg2d_iters(min,last) =      -1      63
(PID.TID 0000.0001)      cg2d_last_res =   9.41095585122615E-12
(PID.TID 0000.0001) // =======================================================
(PID.TID 0000.0001) // Begin MONITOR dynamic field statistics
(PID.TID 0000.0001) // =======================================================
(PID.TID 0000.0001) %MON time_tsnumber                =                   196
(PID.TID 0000.0001) %MON time_secondsf                =   1.9600000000000E+04
(PID.TID 0000.0001) %MON dynstat_eta_max              =   5.7960396879264E+00
(PID.TID 0000.0001) %MON dynstat_eta_min              =  -1.4177786600124E+01
(PID.TID 0000.0001) %MON dynstat_eta_mean             =  -2.5273851546650E+00
(PID.TID 0000.0001) %MON dynstat_eta_sd               =   4.9420794836718E+00
(PID.TID 0000.0001) %MON dynstat_eta_del2             =   1.9058058953792E-01
(PID.TID 0000.0001) %MON dynstat_uvel_max             =   2.5088789288930E-03
(PID.TID 0000.0001) %MON dynstat_uvel_min             =  -3.4041282079007E-03
(PID.TID 0000.0001) %MON dynstat_uvel_mean            =   7.2352764957035E-09
(PID.TID 0000.0001) %MON dynstat_uvel_sd              =   7.5941392931107E-05
(PID.TID 0000.0001) %MON dynstat_uvel_del2            =   3.9632604452156E-07
(PID.TID 0000.0001) %MON dynstat_vvel_max             =   3.1605497730309E-03
(PID.TID 0000.0001) %MON dynstat_vvel_min             =  -2.2048803736983E-03
(PID.TID 0000.0001) %MON dynstat_vvel_mean            =   1.0823534113402E-06
(PID.TID 0000.0001) %MON dynstat_vvel_sd              =   9.5182830486475E-05
(PID.TID 0000.0001) %MON dynstat_vvel_del2            =   4.5372540593130E-07
(PID.TID 0000.0001) %MON dynstat_wvel_max             =   2.1910531225412E-04
(PID.TID 0000.0001) %MON dynstat_wvel_min             =  -1.4727007150765E-04
(PID.TID 0000.0001) %MON dynstat_wvel_mean            =  -1.0146291892161E-09
(PID.TID 0000.0001) %MON dynstat_wvel_sd              =   2.3618615437214E-05
(PID.TID 0000.0001) %MON dynstat_wvel_del2            =   1.2591728846089E-07
(PID.TID 0000.0001) %MON dynstat_theta_max            =   1.2000000000000E+00
(PID.TID 0000.0001) %MON dynstat_theta_min            =  -1.0000000000000E+00
(PID.TID 0000.0001) %MON dynstat_theta_mean           =   5.6546515191840E-01
(PID.TID 0000.0001) %MON dynstat_theta_sd             =   8.4906017532475E-01
(PID.TID 0000.0001) %MON dynstat_theta_del2           =   1.5989634741401E-06
(PID.TID 0000.0001) %MON dynstat_salt_max             =   3.4700000000000E+01
(PID.TID 0000.0001) %MON dynstat_salt_min             =   3.4000000000000E+01
(PID.TID 0000.0001) %MON dynstat_salt_mean            =   3.4498099409932E+01
(PID.TID 0000.0001) %MON dynstat_salt_sd              =   2.7015588014025E-01
(PID.TID 0000.0001) %MON dynstat_salt_del2            =   5.0017370780102E-07
(PID.TID 0000.0001) %MON advcfl_uvel_max              =   3.4041282079007E-04
(PID.TID 0000.0001) %MON advcfl_vvel_max              =   3.1605497730309E-04
(PID.TID 0000.0001) %MON advcfl_wvel_max              =   1.0955265612706E-03
(PID.TID 0000.0001) %MON advcfl_W_hf_max              =   1.0955265612706E-03
(PID.TID 0000.0001) %MON pe_b_mean                    =  -6.8290559866508E-01
(PID.TID 0000.0001) %MON ke_max                       =   5.7287917390280E-06
(PID.TID 0000.0001) %MON ke_mean                      =   7.3596595633912E-09
(PID.TID 0000.0001) %MON ke_vol                       =   4.6182873286963E+12
(PID.TID 0000.0001) // =======================================================
(PID.TID 0000.0001) // End MONITOR dynamic field statistics
(PID.TID 0000.0001) // =======================================================
(PID.TID 0000.0001) // =======================================================
(PID.TID 0000.0001) // Begin OBCS MONITOR field statistics
(PID.TID 0000.0001) // =======================================================
(PID.TID 0000.0001) %MON obc_N_vVel_max               =   1.0988234300357E-06
(PID.TID 0000.0001) %MON obc_N_vVel_min               =   1.0988234300356E-06
(PID.TID 0000.0001) %MON obc_N_vVel_mean              =   1.0988234300356E-06
(PID.TID 0000.0001) %MON obc_N_vVel_sd                =   1.7806149921486E-13
(PID.TID 0000.0001) %MON obc_N_vVel_Int               =   7.2522346382352E+01
(PID.TID 0000.0001) // =======================================================
(PID.TID 0000.0001) // End OBCS MONITOR field statistics
(PID.TID 0000.0001) // =======================================================
 cg2d: Sum(rhs),rhsMax =   3.01242250110388E+00  4.53053176372384E+02
(PID.TID 0000.0001)      cg2d_init_res =   2.59109255666514E-06
(PID.TID 0000.0001)      cg2d_iters(min,last) =      -1      65
(PID.TID 0000.0001)      cg2d_last_res =   8.23209950842811E-12
(PID.TID 0000.0001) // =======================================================
(PID.TID 0000.0001) // Begin MONITOR dynamic field statistics
(PID.TID 0000.0001) // =======================================================
(PID.TID 0000.0001) %MON time_tsnumber                =                   197
(PID.TID 0000.0001) %MON time_secondsf                =   1.9700000000000E+04
(PID.TID 0000.0001) %MON dynstat_eta_max              =   5.7960406293897E+00
(PID.TID 0000.0001) %MON dynstat_eta_min              =  -1.4177782875237E+01
(PID.TID 0000.0001) %MON dynstat_eta_mean             =  -2.5273844124088E+00
(PID.TID 0000.0001) %MON dynstat_eta_sd               =   4.9420790900214E+00
(PID.TID 0000.0001) %MON dynstat_eta_del2             =   1.9058058938438E-01
(PID.TID 0000.0001) %MON dynstat_uvel_max             =   2.5064907022490E-03
(PID.TID 0000.0001) %MON dynstat_uvel_min             =  -3.4113265945976E-03
(PID.TID 0000.0001) %MON dynstat_uvel_mean            =   8.3054708283791E-09
(PID.TID 0000.0001) %MON dynstat_uvel_sd              =   7.6070659656884E-05
(PID.TID 0000.0001) %MON dynstat_uvel_del2            =   3.9556126242232E-07
(PID.TID 0000.0001) %MON dynstat_vvel_max             =   3.1662126140182E-03
(PID.TID 0000.0001) %MON dynstat_vvel_min             =  -2.2001274212631E-03
(PID.TID 0000.0001) %MON dynstat_vvel_mean            =   9.0828374022348E-07
(PID.TID 0000.0001) %MON dynstat_vvel_sd              =   9.5255713220898E-05
(PID.TID 0000.0001) %MON dynstat_vvel_del2            =   4.5283871088194E-07
(PID.TID 0000.0001) %MON dynstat_wvel_max             =   2.1915653029112E-04
(PID.TID 0000.0001) %MON dynstat_wvel_min             =  -1.4569908894180E-04
(PID.TID 0000.0001) %MON dynstat_wvel_mean            =  -1.2164519235207E-09
(PID.TID 0000.0001) %MON dynstat_wvel_sd              =   2.3571617500860E-05
(PID.TID 0000.0001) %MON dynstat_wvel_del2            =   1.2561251957111E-07
(PID.TID 0000.0001) %MON dynstat_theta_max            =   1.2000000000000E+00
(PID.TID 0000.0001) %MON dynstat_theta_min            =  -1.0000000000000E+00
(PID.TID 0000.0001) %MON dynstat_theta_mean           =   5.6546495010424E-01
(PID.TID 0000.0001) %MON dynstat_theta_sd             =   8.4906013177308E-01
(PID.TID 0000.0001) %MON dynstat_theta_del2           =   1.5917118810786E-06
(PID.TID 0000.0001) %MON dynstat_salt_max             =   3.4700000000000E+01
(PID.TID 0000.0001) %MON dynstat_salt_min             =   3.4000000000000E+01
(PID.TID 0000.0001) %MON dynstat_salt_mean            =   3.4498099329864E+01
(PID.TID 0000.0001) %MON dynstat_salt_sd              =   2.7015586800281E-01
(PID.TID 0000.0001) %MON dynstat_salt_del2            =   4.9796534889872E-07
(PID.TID 0000.0001) %MON advcfl_uvel_max              =   3.4113265945976E-04
(PID.TID 0000.0001) %MON advcfl_vvel_max              =   3.1662126140182E-04
(PID.TID 0000.0001) %MON advcfl_wvel_max              =   1.0957826514556E-03
(PID.TID 0000.0001) %MON advcfl_W_hf_max              =   1.0957826514556E-03
(PID.TID 0000.0001) %MON pe_b_mean                    =  -6.8290530338526E-01
(PID.TID 0000.0001) %MON ke_max                       =   5.7391126593768E-06
(PID.TID 0000.0001) %MON ke_mean                      =   7.3760673230548E-09
(PID.TID 0000.0001) %MON ke_vol                       =   4.6182873321813E+12
(PID.TID 0000.0001) // =======================================================
(PID.TID 0000.0001) // End MONITOR dynamic field statistics
(PID.TID 0000.0001) // =======================================================
(PID.TID 0000.0001) // =======================================================
(PID.TID 0000.0001) // Begin OBCS MONITOR field statistics
(PID.TID 0000.0001) // =======================================================
(PID.TID 0000.0001) %MON obc_N_vVel_max               =   9.5886161968632E-07
(PID.TID 0000.0001) %MON obc_N_vVel_min               =   9.5886161968632E-07
(PID.TID 0000.0001) %MON obc_N_vVel_mean              =   9.5886161968632E-07
(PID.TID 0000.0001) %MON obc_N_vVel_sd                =  -2.4435755400126E-26
(PID.TID 0000.0001) %MON obc_N_vVel_Int               =   6.3284866899297E+01
(PID.TID 0000.0001) // =======================================================
(PID.TID 0000.0001) // End OBCS MONITOR field statistics
(PID.TID 0000.0001) // =======================================================
 cg2d: Sum(rhs),rhsMax =   3.01242147473544E+00  4.53053165750800E+02
(PID.TID 0000.0001)      cg2d_init_res =   2.58141205215839E-06
(PID.TID 0000.0001)      cg2d_iters(min,last) =      -1      65
(PID.TID 0000.0001)      cg2d_last_res =   9.48713457151103E-12
(PID.TID 0000.0001) // =======================================================
(PID.TID 0000.0001) // Begin MONITOR dynamic field statistics
(PID.TID 0000.0001) // =======================================================
(PID.TID 0000.0001) %MON time_tsnumber                =                   198
(PID.TID 0000.0001) %MON time_secondsf                =   1.9800000000000E+04
(PID.TID 0000.0001) %MON dynstat_eta_max              =   5.7960418962619E+00
(PID.TID 0000.0001) %MON dynstat_eta_min              =  -1.4177778710263E+01
(PID.TID 0000.0001) %MON dynstat_eta_mean             =  -2.5273834920455E+00
(PID.TID 0000.0001) %MON dynstat_eta_sd               =   4.9420786241740E+00
(PID.TID 0000.0001) %MON dynstat_eta_del2             =   1.9058058926250E-01
(PID.TID 0000.0001) %MON dynstat_uvel_max             =   2.5039416260810E-03
(PID.TID 0000.0001) %MON dynstat_uvel_min             =  -3.4183914985619E-03
(PID.TID 0000.0001) %MON dynstat_uvel_mean            =   9.0452411691945E-09
(PID.TID 0000.0001) %MON dynstat_uvel_sd              =   7.6201041249894E-05
(PID.TID 0000.0001) %MON dynstat_uvel_del2            =   3.9479063544049E-07
(PID.TID 0000.0001) %MON dynstat_vvel_max             =   3.1717550058712E-03
(PID.TID 0000.0001) %MON dynstat_vvel_min             =  -2.1952310011404E-03
(PID.TID 0000.0001) %MON dynstat_vvel_mean            =   7.1829215904572E-07
(PID.TID 0000.0001) %MON dynstat_vvel_sd              =   9.5318919216886E-05
(PID.TID 0000.0001) %MON dynstat_vvel_del2            =   4.5179872687824E-07
(PID.TID 0000.0001) %MON dynstat_wvel_max             =   2.1919763394829E-04
(PID.TID 0000.0001) %MON dynstat_wvel_min             =  -1.4133514644741E-04
(PID.TID 0000.0001) %MON dynstat_wvel_mean            =  -1.3625155837898E-09
(PID.TID 0000.0001) %MON dynstat_wvel_sd              =   2.3506857497522E-05
(PID.TID 0000.0001) %MON dynstat_wvel_del2            =   1.2508120561627E-07
(PID.TID 0000.0001) %MON dynstat_theta_max            =   1.2000000000000E+00
(PID.TID 0000.0001) %MON dynstat_theta_min            =  -1.0000000000000E+00
(PID.TID 0000.0001) %MON dynstat_theta_mean           =   5.6546474822552E-01
(PID.TID 0000.0001) %MON dynstat_theta_sd             =   8.4906008818488E-01
(PID.TID 0000.0001) %MON dynstat_theta_del2           =   1.5846272480615E-06
(PID.TID 0000.0001) %MON dynstat_salt_max             =   3.4700000000000E+01
(PID.TID 0000.0001) %MON dynstat_salt_min             =   3.4000000000000E+01
(PID.TID 0000.0001) %MON dynstat_salt_mean            =   3.4498099249776E+01
(PID.TID 0000.0001) %MON dynstat_salt_sd              =   2.7015585585162E-01
(PID.TID 0000.0001) %MON dynstat_salt_del2            =   4.9581231999667E-07
(PID.TID 0000.0001) %MON advcfl_uvel_max              =   3.4183914985619E-04
(PID.TID 0000.0001) %MON advcfl_vvel_max              =   3.1717550058712E-04
(PID.TID 0000.0001) %MON advcfl_wvel_max              =   1.0959881697414E-03
(PID.TID 0000.0001) %MON advcfl_W_hf_max              =   1.0959881697414E-03
(PID.TID 0000.0001) %MON pe_b_mean                    =  -6.8290496715553E-01
(PID.TID 0000.0001) %MON ke_max                       =   5.7489819840562E-06
(PID.TID 0000.0001) %MON ke_mean                      =   7.3916764661487E-09
(PID.TID 0000.0001) %MON ke_vol                       =   4.6182873365903E+12
(PID.TID 0000.0001) // =======================================================
(PID.TID 0000.0001) // End MONITOR dynamic field statistics
(PID.TID 0000.0001) // =======================================================
(PID.TID 0000.0001) // =======================================================
(PID.TID 0000.0001) // Begin OBCS MONITOR field statistics
(PID.TID 0000.0001) // =======================================================
(PID.TID 0000.0001) %MON obc_N_vVel_max               =   7.9860595973158E-07
(PID.TID 0000.0001) %MON obc_N_vVel_min               =   7.9860595973157E-07
(PID.TID 0000.0001) %MON obc_N_vVel_mean              =   7.9860595973158E-07
(PID.TID 0000.0001) %MON obc_N_vVel_sd                =  -2.6960110296833E-26
(PID.TID 0000.0001) %MON obc_N_vVel_Int               =   5.2707993342284E+01
(PID.TID 0000.0001) // =======================================================
(PID.TID 0000.0001) // End OBCS MONITOR field statistics
(PID.TID 0000.0001) // =======================================================
 cg2d: Sum(rhs),rhsMax =   3.01242021612914E+00  4.53053155356581E+02
(PID.TID 0000.0001)      cg2d_init_res =   2.56703481712341E-06
(PID.TID 0000.0001)      cg2d_iters(min,last) =      -1      66
(PID.TID 0000.0001)      cg2d_last_res =   8.31131278545070E-12
(PID.TID 0000.0001) // =======================================================
(PID.TID 0000.0001) // Begin MONITOR dynamic field statistics
(PID.TID 0000.0001) // =======================================================
(PID.TID 0000.0001) %MON time_tsnumber                =                   199
(PID.TID 0000.0001) %MON time_secondsf                =   1.9900000000000E+04
(PID.TID 0000.0001) %MON dynstat_eta_max              =   5.7960435042325E+00
(PID.TID 0000.0001) %MON dynstat_eta_min              =  -1.4177774093425E+01
(PID.TID 0000.0001) %MON dynstat_eta_mean             =  -2.5273823781060E+00
(PID.TID 0000.0001) %MON dynstat_eta_sd               =   4.9420780868970E+00
(PID.TID 0000.0001) %MON dynstat_eta_del2             =   1.9058058917105E-01
(PID.TID 0000.0001) %MON dynstat_uvel_max             =   2.5012331838017E-03
(PID.TID 0000.0001) %MON dynstat_uvel_min             =  -3.4253239034254E-03
(PID.TID 0000.0001) %MON dynstat_uvel_mean            =   9.4570743457305E-09
(PID.TID 0000.0001) %MON dynstat_uvel_sd              =   7.6332573183225E-05
(PID.TID 0000.0001) %MON dynstat_uvel_del2            =   3.9401443419604E-07
(PID.TID 0000.0001) %MON dynstat_vvel_max             =   3.1771812000789E-03
(PID.TID 0000.0001) %MON dynstat_vvel_min             =  -2.1901877432651E-03
(PID.TID 0000.0001) %MON dynstat_vvel_mean            =   5.1931128521398E-07
(PID.TID 0000.0001) %MON dynstat_vvel_sd              =   9.5373336811039E-05
(PID.TID 0000.0001) %MON dynstat_vvel_del2            =   4.5062402046688E-07
(PID.TID 0000.0001) %MON dynstat_wvel_max             =   2.1922861852032E-04
(PID.TID 0000.0001) %MON dynstat_wvel_min             =  -1.3425157215940E-04
(PID.TID 0000.0001) %MON dynstat_wvel_mean            =  -1.4527249211578E-09
(PID.TID 0000.0001) %MON dynstat_wvel_sd              =   2.3426217096880E-05
(PID.TID 0000.0001) %MON dynstat_wvel_del2            =   1.2435316471099E-07
(PID.TID 0000.0001) %MON dynstat_theta_max            =   1.2000000000000E+00
(PID.TID 0000.0001) %MON dynstat_theta_min            =  -1.0000000000000E+00
(PID.TID 0000.0001) %MON dynstat_theta_mean           =   5.6546454627434E-01
(PID.TID 0000.0001) %MON dynstat_theta_sd             =   8.4906004460878E-01
(PID.TID 0000.0001) %MON dynstat_theta_del2           =   1.5776899121930E-06
(PID.TID 0000.0001) %MON dynstat_salt_max             =   3.4700000000000E+01
(PID.TID 0000.0001) %MON dynstat_salt_min             =   3.4000000000000E+01
(PID.TID 0000.0001) %MON dynstat_salt_mean            =   3.4498099169663E+01
(PID.TID 0000.0001) %MON dynstat_salt_sd              =   2.7015584370219E-01
(PID.TID 0000.0001) %MON dynstat_salt_del2            =   4.9370812821649E-07
(PID.TID 0000.0001) %MON advcfl_uvel_max              =   3.4253239034254E-04
(PID.TID 0000.0001) %MON advcfl_vvel_max              =   3.1771812000789E-04
(PID.TID 0000.0001) %MON advcfl_wvel_max              =   1.0961430926016E-03
(PID.TID 0000.0001) %MON advcfl_W_hf_max              =   1.0961430926016E-03
(PID.TID 0000.0001) %MON pe_b_mean                    =  -6.8290458840292E-01
(PID.TID 0000.0001) %MON ke_max                       =   5.7584081404470E-06
(PID.TID 0000.0001) %MON ke_mean                      =   7.4065855149472E-09
(PID.TID 0000.0001) %MON ke_vol                       =   4.6182873420572E+12
(PID.TID 0000.0001) // =======================================================
(PID.TID 0000.0001) // End MONITOR dynamic field statistics
(PID.TID 0000.0001) // =======================================================
(PID.TID 0000.0001) // =======================================================
(PID.TID 0000.0001) // Begin OBCS MONITOR field statistics
(PID.TID 0000.0001) // =======================================================
(PID.TID 0000.0001) %MON obc_N_vVel_max               =   6.2442756279638E-07
(PID.TID 0000.0001) %MON obc_N_vVel_min               =   6.2442756279637E-07
(PID.TID 0000.0001) %MON obc_N_vVel_mean              =   6.2442756279637E-07
(PID.TID 0000.0001) %MON obc_N_vVel_sd                =   1.3593482939959E-13
(PID.TID 0000.0001) %MON obc_N_vVel_Int               =   4.1212219144560E+01
(PID.TID 0000.0001) // =======================================================
(PID.TID 0000.0001) // End OBCS MONITOR field statistics
(PID.TID 0000.0001) // =======================================================
 cg2d: Sum(rhs),rhsMax =   3.01241871540293E+00  4.53053145156327E+02
(PID.TID 0000.0001)      cg2d_init_res =   2.54878055879660E-06
(PID.TID 0000.0001)      cg2d_iters(min,last) =      -1      66
(PID.TID 0000.0001)      cg2d_last_res =   9.06670283518320E-12
(PID.TID 0000.0001) // =======================================================
(PID.TID 0000.0001) // Begin MONITOR dynamic field statistics
(PID.TID 0000.0001) // =======================================================
(PID.TID 0000.0001) %MON time_tsnumber                =                   200
(PID.TID 0000.0001) %MON time_secondsf                =   2.0000000000000E+04
(PID.TID 0000.0001) %MON dynstat_eta_max              =   5.7960454591302E+00
(PID.TID 0000.0001) %MON dynstat_eta_min              =  -1.4177769030108E+01
(PID.TID 0000.0001) %MON dynstat_eta_mean             =  -2.5273810621131E+00
(PID.TID 0000.0001) %MON dynstat_eta_sd               =   4.9420774810663E+00
(PID.TID 0000.0001) %MON dynstat_eta_del2             =   1.9058058910755E-01
(PID.TID 0000.0001) %MON dynstat_uvel_max             =   2.4983668592675E-03
(PID.TID 0000.0001) %MON dynstat_uvel_min             =  -3.4321247483933E-03
(PID.TID 0000.0001) %MON dynstat_uvel_mean            =   9.5533138850482E-09
(PID.TID 0000.0001) %MON dynstat_uvel_sd              =   7.6465289744092E-05
(PID.TID 0000.0001) %MON dynstat_uvel_del2            =   3.9323291902321E-07
(PID.TID 0000.0001) %MON dynstat_vvel_max             =   3.1824952483124E-03
(PID.TID 0000.0001) %MON dynstat_vvel_min             =  -2.1849945691077E-03
(PID.TID 0000.0001) %MON dynstat_vvel_mean            =   3.1801334254260E-07
(PID.TID 0000.0001) %MON dynstat_vvel_sd              =   9.5420949459714E-05
(PID.TID 0000.0001) %MON dynstat_vvel_del2            =   4.4934877057649E-07
(PID.TID 0000.0001) %MON dynstat_wvel_max             =   2.1924952590625E-04
(PID.TID 0000.0001) %MON dynstat_wvel_min             =  -1.2766334388501E-04
(PID.TID 0000.0001) %MON dynstat_wvel_mean            =  -1.4885869120845E-09
(PID.TID 0000.0001) %MON dynstat_wvel_sd              =   2.3333597617315E-05
(PID.TID 0000.0001) %MON dynstat_wvel_del2            =   1.2348248846468E-07
(PID.TID 0000.0001) %MON dynstat_theta_max            =   1.2000000000000E+00
(PID.TID 0000.0001) %MON dynstat_theta_min            =  -1.0000000000000E+00
(PID.TID 0000.0001) %MON dynstat_theta_mean           =   5.6546434424541E-01
(PID.TID 0000.0001) %MON dynstat_theta_sd             =   8.4906000107247E-01
(PID.TID 0000.0001) %MON dynstat_theta_del2           =   1.5708680819025E-06
(PID.TID 0000.0001) %MON dynstat_salt_max             =   3.4700000000000E+01
(PID.TID 0000.0001) %MON dynstat_salt_min             =   3.4000000000000E+01
(PID.TID 0000.0001) %MON dynstat_salt_mean            =   3.4498099089526E+01
(PID.TID 0000.0001) %MON dynstat_salt_sd              =   2.7015583156307E-01
(PID.TID 0000.0001) %MON dynstat_salt_del2            =   4.9164251760498E-07
(PID.TID 0000.0001) %MON advcfl_uvel_max              =   3.4321247483933E-04
(PID.TID 0000.0001) %MON advcfl_vvel_max              =   3.1824952483124E-04
(PID.TID 0000.0001) %MON advcfl_wvel_max              =   1.0962476295313E-03
(PID.TID 0000.0001) %MON advcfl_W_hf_max              =   1.0962476295313E-03
(PID.TID 0000.0001) %MON pe_b_mean                    =  -6.8290416695239E-01
(PID.TID 0000.0001) %MON ke_max                       =   5.7673993710047E-06
(PID.TID 0000.0001) %MON ke_mean                      =   7.4209927012949E-09
(PID.TID 0000.0001) %MON ke_vol                       =   4.6182873486741E+12
(PID.TID 0000.0001) // =======================================================
(PID.TID 0000.0001) // End MONITOR dynamic field statistics
(PID.TID 0000.0001) // =======================================================
(PID.TID 0000.0001) // =======================================================
(PID.TID 0000.0001) // Begin OBCS MONITOR field statistics
(PID.TID 0000.0001) // =======================================================
(PID.TID 0000.0001) %MON obc_N_vVel_max               =   4.4261954378346E-07
(PID.TID 0000.0001) %MON obc_N_vVel_min               =   4.4261954378345E-07
(PID.TID 0000.0001) %MON obc_N_vVel_mean              =   4.4261954378345E-07
(PID.TID 0000.0001) %MON obc_N_vVel_sd                =   8.4222546029833E-14
(PID.TID 0000.0001) %MON obc_N_vVel_Int               =   2.9212889889707E+01
(PID.TID 0000.0001) // =======================================================
(PID.TID 0000.0001) // End OBCS MONITOR field statistics
(PID.TID 0000.0001) // =======================================================
 cg2d: Sum(rhs),rhsMax =   3.01241697074789E+00  4.53053135105955E+02
(PID.TID 0000.0001)      cg2d_init_res =   2.52802392227787E-06
(PID.TID 0000.0001)      cg2d_iters(min,last) =      -1      66
(PID.TID 0000.0001)      cg2d_last_res =   9.84210281660006E-12
(PID.TID 0000.0001) // =======================================================
(PID.TID 0000.0001) // Begin MONITOR dynamic field statistics
(PID.TID 0000.0001) // =======================================================
(PID.TID 0000.0001) %MON time_tsnumber                =                   201
(PID.TID 0000.0001) %MON time_secondsf                =   2.0100000000000E+04
(PID.TID 0000.0001) %MON dynstat_eta_max              =   5.7960477541597E+00
(PID.TID 0000.0001) %MON dynstat_eta_min              =  -1.4177763536137E+01
(PID.TID 0000.0001) %MON dynstat_eta_mean             =  -2.5273795423032E+00
(PID.TID 0000.0001) %MON dynstat_eta_sd               =   4.9420768113827E+00
(PID.TID 0000.0001) %MON dynstat_eta_del2             =   1.9058058906888E-01
(PID.TID 0000.0001) %MON dynstat_uvel_max             =   2.4953441474711E-03
(PID.TID 0000.0001) %MON dynstat_uvel_min             =  -3.4387949638490E-03
(PID.TID 0000.0001) %MON dynstat_uvel_mean            =   9.3553424760243E-09
(PID.TID 0000.0001) %MON dynstat_uvel_sd              =   7.6599224043928E-05
(PID.TID 0000.0001) %MON dynstat_uvel_del2            =   3.9244633972968E-07
(PID.TID 0000.0001) %MON dynstat_vvel_max             =   3.1877008671497E-03
(PID.TID 0000.0001) %MON dynstat_vvel_min             =  -2.1796487818992E-03
(PID.TID 0000.0001) %MON dynstat_vvel_mean            =   1.2062719104326E-07
(PID.TID 0000.0001) %MON dynstat_vvel_sd              =   9.5464535931650E-05
(PID.TID 0000.0001) %MON dynstat_vvel_del2            =   4.4801781867330E-07
(PID.TID 0000.0001) %MON dynstat_wvel_max             =   2.1926032208549E-04
(PID.TID 0000.0001) %MON dynstat_wvel_min             =  -1.2440472142157E-04
(PID.TID 0000.0001) %MON dynstat_wvel_mean            =  -1.4730896502965E-09
(PID.TID 0000.0001) %MON dynstat_wvel_sd              =   2.3234371442305E-05
(PID.TID 0000.0001) %MON dynstat_wvel_del2            =   1.2254050239721E-07
(PID.TID 0000.0001) %MON dynstat_theta_max            =   1.2000000000000E+00
(PID.TID 0000.0001) %MON dynstat_theta_min            =  -1.0000000000000E+00
(PID.TID 0000.0001) %MON dynstat_theta_mean           =   5.6546414213610E-01
(PID.TID 0000.0001) %MON dynstat_theta_sd             =   8.4905995760380E-01
(PID.TID 0000.0001) %MON dynstat_theta_del2           =   1.5641234186184E-06
(PID.TID 0000.0001) %MON dynstat_salt_max             =   3.4700000000000E+01
(PID.TID 0000.0001) %MON dynstat_salt_min             =   3.4000000000000E+01
(PID.TID 0000.0001) %MON dynstat_salt_mean            =   3.4498099009363E+01
(PID.TID 0000.0001) %MON dynstat_salt_sd              =   2.7015581944353E-01
(PID.TID 0000.0001) %MON dynstat_salt_del2            =   4.8960313570721E-07
(PID.TID 0000.0001) %MON advcfl_uvel_max              =   3.4387949638490E-04
(PID.TID 0000.0001) %MON advcfl_vvel_max              =   3.1877008671497E-04
(PID.TID 0000.0001) %MON advcfl_wvel_max              =   1.0963016104275E-03
(PID.TID 0000.0001) %MON advcfl_W_hf_max              =   1.0963016104275E-03
(PID.TID 0000.0001) %MON pe_b_mean                    =  -6.8290370392661E-01
(PID.TID 0000.0001) %MON ke_max                       =   5.7759635406085E-06
(PID.TID 0000.0001) %MON ke_mean                      =   7.4351673563151E-09
(PID.TID 0000.0001) %MON ke_vol                       =   4.6182873564910E+12
(PID.TID 0000.0001) // =======================================================
(PID.TID 0000.0001) // End MONITOR dynamic field statistics
(PID.TID 0000.0001) // =======================================================
(PID.TID 0000.0001) // =======================================================
(PID.TID 0000.0001) // Begin OBCS MONITOR field statistics
(PID.TID 0000.0001) // =======================================================
(PID.TID 0000.0001) %MON obc_N_vVel_max               =   2.5922361845000E-07
(PID.TID 0000.0001) %MON obc_N_vVel_min               =   2.5922361844999E-07
(PID.TID 0000.0001) %MON obc_N_vVel_mean              =   2.5922361844999E-07
(PID.TID 0000.0001) %MON obc_N_vVel_sd                =   4.5773513785452E-14
(PID.TID 0000.0001) %MON obc_N_vVel_Int               =   1.7108758817700E+01
(PID.TID 0000.0001) // =======================================================
(PID.TID 0000.0001) // End OBCS MONITOR field statistics
(PID.TID 0000.0001) // =======================================================
 cg2d: Sum(rhs),rhsMax =   3.01241498787404E+00  4.53053125152496E+02
(PID.TID 0000.0001)      cg2d_init_res =   2.50634370952983E-06
(PID.TID 0000.0001)      cg2d_iters(min,last) =      -1      67
(PID.TID 0000.0001)      cg2d_last_res =   8.96365394464474E-12
(PID.TID 0000.0001) // =======================================================
(PID.TID 0000.0001) // Begin MONITOR dynamic field statistics
(PID.TID 0000.0001) // =======================================================
(PID.TID 0000.0001) %MON time_tsnumber                =                   202
(PID.TID 0000.0001) %MON time_secondsf                =   2.0200000000000E+04
(PID.TID 0000.0001) %MON dynstat_eta_max              =   5.7960503730442E+00
(PID.TID 0000.0001) %MON dynstat_eta_min              =  -1.4177757639869E+01
(PID.TID 0000.0001) %MON dynstat_eta_mean             =  -2.5273778231714E+00
(PID.TID 0000.0001) %MON dynstat_eta_sd               =   4.9420760841066E+00
(PID.TID 0000.0001) %MON dynstat_eta_del2             =   1.9058058905162E-01
(PID.TID 0000.0001) %MON dynstat_uvel_max             =   2.4921665291835E-03
(PID.TID 0000.0001) %MON dynstat_uvel_min             =  -3.4453354342578E-03
(PID.TID 0000.0001) %MON dynstat_uvel_mean            =   8.8920913855835E-09
(PID.TID 0000.0001) %MON dynstat_uvel_sd              =   7.6734408402213E-05
(PID.TID 0000.0001) %MON dynstat_uvel_del2            =   3.9165493750617E-07
(PID.TID 0000.0001) %MON dynstat_vvel_max             =   3.1928014383231E-03
(PID.TID 0000.0001) %MON dynstat_vvel_min             =  -2.1741482389430E-03
(PID.TID 0000.0001) %MON dynstat_vvel_mean            =  -6.7215285816458E-08
(PID.TID 0000.0001) %MON dynstat_vvel_sd              =   9.5507278213922E-05
(PID.TID 0000.0001) %MON dynstat_vvel_del2            =   4.4668051559035E-07
(PID.TID 0000.0001) %MON dynstat_wvel_max             =   2.1926104005148E-04
(PID.TID 0000.0001) %MON dynstat_wvel_min             =  -1.1823644727554E-04
(PID.TID 0000.0001) %MON dynstat_wvel_mean            =  -1.4106785143065E-09
(PID.TID 0000.0001) %MON dynstat_wvel_sd              =   2.3134657359256E-05
(PID.TID 0000.0001) %MON dynstat_wvel_del2            =   1.2160659880739E-07
(PID.TID 0000.0001) %MON dynstat_theta_max            =   1.2000000000000E+00
(PID.TID 0000.0001) %MON dynstat_theta_min            =  -1.0000000000000E+00
(PID.TID 0000.0001) %MON dynstat_theta_mean           =   5.6546393994598E-01
(PID.TID 0000.0001) %MON dynstat_theta_sd             =   8.4905991421962E-01
(PID.TID 0000.0001) %MON dynstat_theta_del2           =   1.5574181660959E-06
(PID.TID 0000.0001) %MON dynstat_salt_max             =   3.4700000000000E+01
(PID.TID 0000.0001) %MON dynstat_salt_min             =   3.4000000000000E+01
(PID.TID 0000.0001) %MON dynstat_salt_mean            =   3.4498098929173E+01
(PID.TID 0000.0001) %MON dynstat_salt_sd              =   2.7015580734867E-01
(PID.TID 0000.0001) %MON dynstat_salt_del2            =   4.8757755703112E-07
(PID.TID 0000.0001) %MON advcfl_uvel_max              =   3.4453354342578E-04
(PID.TID 0000.0001) %MON advcfl_vvel_max              =   3.1928014383231E-04
(PID.TID 0000.0001) %MON advcfl_wvel_max              =   1.0963052002574E-03
(PID.TID 0000.0001) %MON advcfl_W_hf_max              =   1.0963052002574E-03
(PID.TID 0000.0001) %MON pe_b_mean                    =  -6.8290320160994E-01
(PID.TID 0000.0001) %MON ke_max                       =   5.7841081386907E-06
(PID.TID 0000.0001) %MON ke_mean                      =   7.4494130349970E-09
(PID.TID 0000.0001) %MON ke_vol                       =   4.6182873655187E+12
(PID.TID 0000.0001) // =======================================================
(PID.TID 0000.0001) // End MONITOR dynamic field statistics
(PID.TID 0000.0001) // =======================================================
(PID.TID 0000.0001) // =======================================================
(PID.TID 0000.0001) // Begin OBCS MONITOR field statistics
(PID.TID 0000.0001) // =======================================================
(PID.TID 0000.0001) %MON obc_N_vVel_max               =   7.9874627521857E-08
(PID.TID 0000.0001) %MON obc_N_vVel_min               =   7.9874627521855E-08
(PID.TID 0000.0001) %MON obc_N_vVel_mean              =   7.9874627521857E-08
(PID.TID 0000.0001) %MON obc_N_vVel_sd                =  -1.7670484276951E-28
(PID.TID 0000.0001) %MON obc_N_vVel_Int               =   5.2717254164426E+00
(PID.TID 0000.0001) // =======================================================
(PID.TID 0000.0001) // End OBCS MONITOR field statistics
(PID.TID 0000.0001) // =======================================================
 cg2d: Sum(rhs),rhsMax =   3.01241277924093E+00  4.53053115237012E+02
(PID.TID 0000.0001)      cg2d_init_res =   2.48554910418887E-06
(PID.TID 0000.0001)      cg2d_iters(min,last) =      -1      67
(PID.TID 0000.0001)      cg2d_last_res =   9.31532987877326E-12
(PID.TID 0000.0001) // =======================================================
(PID.TID 0000.0001) // Begin MONITOR dynamic field statistics
(PID.TID 0000.0001) // =======================================================
(PID.TID 0000.0001) %MON time_tsnumber                =                   203
(PID.TID 0000.0001) %MON time_secondsf                =   2.0300000000000E+04
(PID.TID 0000.0001) %MON dynstat_eta_max              =   5.7960532935685E+00
(PID.TID 0000.0001) %MON dynstat_eta_min              =  -1.4177751378869E+01
(PID.TID 0000.0001) %MON dynstat_eta_mean             =  -2.5273759148424E+00
(PID.TID 0000.0001) %MON dynstat_eta_sd               =   4.9420753067371E+00
(PID.TID 0000.0001) %MON dynstat_eta_del2             =   1.9058058905217E-01
(PID.TID 0000.0001) %MON dynstat_uvel_max             =   2.4888354406105E-03
(PID.TID 0000.0001) %MON dynstat_uvel_min             =  -3.4517470374371E-03
(PID.TID 0000.0001) %MON dynstat_uvel_mean            =   8.1981371531549E-09
(PID.TID 0000.0001) %MON dynstat_uvel_sd              =   7.6870874399324E-05
(PID.TID 0000.0001) %MON dynstat_uvel_del2            =   3.9085894553266E-07
(PID.TID 0000.0001) %MON dynstat_vvel_max             =   3.1978000164870E-03
(PID.TID 0000.0001) %MON dynstat_vvel_min             =  -2.1684913387023E-03
(PID.TID 0000.0001) %MON dynstat_vvel_mean            =  -2.4060493435522E-07
(PID.TID 0000.0001) %MON dynstat_vvel_sd              =   9.5552332981769E-05
(PID.TID 0000.0001) %MON dynstat_vvel_del2            =   4.4538418613706E-07
(PID.TID 0000.0001) %MON dynstat_wvel_max             =   2.1925170704597E-04
(PID.TID 0000.0001) %MON dynstat_wvel_min             =  -1.1120215164210E-04
(PID.TID 0000.0001) %MON dynstat_wvel_mean            =  -1.3068063729428E-09
(PID.TID 0000.0001) %MON dynstat_wvel_sd              =   2.3040508116399E-05
(PID.TID 0000.0001) %MON dynstat_wvel_del2            =   1.2075787400457E-07
(PID.TID 0000.0001) %MON dynstat_theta_max            =   1.2000000000000E+00
(PID.TID 0000.0001) %MON dynstat_theta_min            =  -1.0000000000000E+00
(PID.TID 0000.0001) %MON dynstat_theta_mean           =   5.6546373767674E-01
(PID.TID 0000.0001) %MON dynstat_theta_sd             =   8.4905987091985E-01
(PID.TID 0000.0001) %MON dynstat_theta_del2           =   1.5507165052398E-06
(PID.TID 0000.0001) %MON dynstat_salt_max             =   3.4700000000000E+01
(PID.TID 0000.0001) %MON dynstat_salt_min             =   3.4000000000000E+01
(PID.TID 0000.0001) %MON dynstat_salt_mean            =   3.4498098848958E+01
(PID.TID 0000.0001) %MON dynstat_salt_sd              =   2.7015579527838E-01
(PID.TID 0000.0001) %MON dynstat_salt_del2            =   4.8555444076064E-07
(PID.TID 0000.0001) %MON advcfl_uvel_max              =   3.4517470374371E-04
(PID.TID 0000.0001) %MON advcfl_vvel_max              =   3.1978000164870E-04
(PID.TID 0000.0001) %MON advcfl_wvel_max              =   1.0962585352298E-03
(PID.TID 0000.0001) %MON advcfl_W_hf_max              =   1.0962585352298E-03
(PID.TID 0000.0001) %MON pe_b_mean                    =  -6.8290266328918E-01
(PID.TID 0000.0001) %MON ke_max                       =   5.7918402658794E-06
(PID.TID 0000.0001) %MON ke_mean                      =   7.4640275694395E-09
(PID.TID 0000.0001) %MON ke_vol                       =   4.6182873757304E+12
(PID.TID 0000.0001) // =======================================================
(PID.TID 0000.0001) // End MONITOR dynamic field statistics
(PID.TID 0000.0001) // =======================================================
(PID.TID 0000.0001) // =======================================================
(PID.TID 0000.0001) // Begin OBCS MONITOR field statistics
(PID.TID 0000.0001) // =======================================================
(PID.TID 0000.0001) %MON obc_N_vVel_max               =  -9.0359149683074E-08
(PID.TID 0000.0001) %MON obc_N_vVel_min               =  -9.0359149683075E-08
(PID.TID 0000.0001) %MON obc_N_vVel_mean              =  -9.0359149683074E-08
(PID.TID 0000.0001) %MON obc_N_vVel_sd                =   1.4594260666771E-14
(PID.TID 0000.0001) %MON obc_N_vVel_Int               =  -5.9637038790829E+00
(PID.TID 0000.0001) // =======================================================
(PID.TID 0000.0001) // End OBCS MONITOR field statistics
(PID.TID 0000.0001) // =======================================================
 cg2d: Sum(rhs),rhsMax =   3.01241036316108E+00  4.53053105297990E+02
(PID.TID 0000.0001)      cg2d_init_res =   2.46723071668808E-06
(PID.TID 0000.0001)      cg2d_iters(min,last) =      -1      67
(PID.TID 0000.0001)      cg2d_last_res =   9.45921032180348E-12
(PID.TID 0000.0001) // =======================================================
(PID.TID 0000.0001) // Begin MONITOR dynamic field statistics
(PID.TID 0000.0001) // =======================================================
(PID.TID 0000.0001) %MON time_tsnumber                =                   204
(PID.TID 0000.0001) %MON time_secondsf                =   2.0400000000000E+04
(PID.TID 0000.0001) %MON dynstat_eta_max              =   5.7960564838670E+00
(PID.TID 0000.0001) %MON dynstat_eta_min              =  -1.4177744799663E+01
(PID.TID 0000.0001) %MON dynstat_eta_mean             =  -2.5273738323370E+00
(PID.TID 0000.0001) %MON dynstat_eta_sd               =   4.9420744877093E+00
(PID.TID 0000.0001) %MON dynstat_eta_del2             =   1.9058058906664E-01
(PID.TID 0000.0001) %MON dynstat_uvel_max             =   2.4853523134460E-03
(PID.TID 0000.0001) %MON dynstat_uvel_min             =  -3.4580305805891E-03
(PID.TID 0000.0001) %MON dynstat_uvel_mean            =   7.3124715475451E-09
(PID.TID 0000.0001) %MON dynstat_uvel_sd              =   7.7008653115160E-05
(PID.TID 0000.0001) %MON dynstat_uvel_del2            =   3.9005858999916E-07
(PID.TID 0000.0001) %MON dynstat_vvel_max             =   3.2026990897522E-03
(PID.TID 0000.0001) %MON dynstat_vvel_min             =  -2.1626772071599E-03
(PID.TID 0000.0001) %MON dynstat_vvel_mean            =  -3.9545146384137E-07
(PID.TID 0000.0001) %MON dynstat_vvel_sd              =   9.5602421883091E-05
(PID.TID 0000.0001) %MON dynstat_vvel_del2            =   4.4416803470766E-07
(PID.TID 0000.0001) %MON dynstat_wvel_max             =   2.1923236463897E-04
(PID.TID 0000.0001) %MON dynstat_wvel_min             =  -1.1958810605916E-04
(PID.TID 0000.0001) %MON dynstat_wvel_mean            =  -1.1677751632549E-09
(PID.TID 0000.0001) %MON dynstat_wvel_sd              =   2.2957114156453E-05
(PID.TID 0000.0001) %MON dynstat_wvel_del2            =   1.2005881523296E-07
(PID.TID 0000.0001) %MON dynstat_theta_max            =   1.2000000000000E+00
(PID.TID 0000.0001) %MON dynstat_theta_min            =  -1.0000000000000E+00
(PID.TID 0000.0001) %MON dynstat_theta_mean           =   5.6546353533256E-01
(PID.TID 0000.0001) %MON dynstat_theta_sd             =   8.4905982767881E-01
(PID.TID 0000.0001) %MON dynstat_theta_del2           =   1.5439893398342E-06
(PID.TID 0000.0001) %MON dynstat_salt_max             =   3.4700000000000E+01
(PID.TID 0000.0001) %MON dynstat_salt_min             =   3.4000000000000E+01
(PID.TID 0000.0001) %MON dynstat_salt_mean            =   3.4498098768719E+01
(PID.TID 0000.0001) %MON dynstat_salt_sd              =   2.7015578322460E-01
(PID.TID 0000.0001) %MON dynstat_salt_del2            =   4.8352439692284E-07
(PID.TID 0000.0001) %MON advcfl_uvel_max              =   3.4580305805891E-04
(PID.TID 0000.0001) %MON advcfl_vvel_max              =   3.2026990897522E-04
(PID.TID 0000.0001) %MON advcfl_wvel_max              =   1.0961618231948E-03
(PID.TID 0000.0001) %MON advcfl_W_hf_max              =   1.0961618231948E-03
(PID.TID 0000.0001) %MON pe_b_mean                    =  -6.8290209307869E-01
(PID.TID 0000.0001) %MON ke_max                       =   5.7991662999490E-06
(PID.TID 0000.0001) %MON ke_mean                      =   7.4792652176207E-09
(PID.TID 0000.0001) %MON ke_vol                       =   4.6182873870658E+12
(PID.TID 0000.0001) // =======================================================
(PID.TID 0000.0001) // End MONITOR dynamic field statistics
(PID.TID 0000.0001) // =======================================================
(PID.TID 0000.0001) // =======================================================
(PID.TID 0000.0001) // Begin OBCS MONITOR field statistics
(PID.TID 0000.0001) // =======================================================
(PID.TID 0000.0001) %MON obc_N_vVel_max               =  -2.4707502294176E-07
(PID.TID 0000.0001) %MON obc_N_vVel_min               =  -2.4707502294176E-07
(PID.TID 0000.0001) %MON obc_N_vVel_mean              =  -2.4707502294176E-07
(PID.TID 0000.0001) %MON obc_N_vVel_sd                =   3.8918028444724E-14
(PID.TID 0000.0001) %MON obc_N_vVel_Int               =  -1.6306951514156E+01
(PID.TID 0000.0001) // =======================================================
(PID.TID 0000.0001) // End OBCS MONITOR field statistics
(PID.TID 0000.0001) // =======================================================
 cg2d: Sum(rhs),rhsMax =   3.01240776279459E+00  4.53053095272367E+02
(PID.TID 0000.0001)      cg2d_init_res =   2.45276524186713E-06
(PID.TID 0000.0001)      cg2d_iters(min,last) =      -1      58
(PID.TID 0000.0001)      cg2d_last_res =   8.98302966918538E-12
(PID.TID 0000.0001) // =======================================================
(PID.TID 0000.0001) // Begin MONITOR dynamic field statistics
(PID.TID 0000.0001) // =======================================================
(PID.TID 0000.0001) %MON time_tsnumber                =                   205
(PID.TID 0000.0001) %MON time_secondsf                =   2.0500000000000E+04
(PID.TID 0000.0001) %MON dynstat_eta_max              =   5.7960599068442E+00
(PID.TID 0000.0001) %MON dynstat_eta_min              =  -1.4177737955290E+01
(PID.TID 0000.0001) %MON dynstat_eta_mean             =  -2.5273715947344E+00
(PID.TID 0000.0001) %MON dynstat_eta_sd               =   4.9420736360589E+00
(PID.TID 0000.0001) %MON dynstat_eta_del2             =   1.9058058909151E-01
(PID.TID 0000.0001) %MON dynstat_uvel_max             =   2.4817185286761E-03
(PID.TID 0000.0001) %MON dynstat_uvel_min             =  -3.4641868693068E-03
(PID.TID 0000.0001) %MON dynstat_uvel_mean            =   6.2812254407862E-09
(PID.TID 0000.0001) %MON dynstat_uvel_sd              =   7.7147775547742E-05
(PID.TID 0000.0001) %MON dynstat_uvel_del2            =   3.8925409165230E-07
(PID.TID 0000.0001) %MON dynstat_vvel_max             =   3.2075007791823E-03
(PID.TID 0000.0001) %MON dynstat_vvel_min             =  -2.1567055966827E-03
(PID.TID 0000.0001) %MON dynstat_vvel_mean            =  -5.2854605044998E-07
(PID.TID 0000.0001) %MON dynstat_vvel_sd              =   9.5659492792003E-05
(PID.TID 0000.0001) %MON dynstat_vvel_del2            =   4.4305829489033E-07
(PID.TID 0000.0001) %MON dynstat_wvel_max             =   2.1920307187113E-04
(PID.TID 0000.0001) %MON dynstat_wvel_min             =  -1.2629103227572E-04
(PID.TID 0000.0001) %MON dynstat_wvel_mean            =  -1.0004944328604E-09
(PID.TID 0000.0001) %MON dynstat_wvel_sd              =   2.2888129224128E-05
(PID.TID 0000.0001) %MON dynstat_wvel_del2            =   1.1955254537865E-07
(PID.TID 0000.0001) %MON dynstat_theta_max            =   1.2000000000000E+00
(PID.TID 0000.0001) %MON dynstat_theta_min            =  -1.0000000000000E+00
(PID.TID 0000.0001) %MON dynstat_theta_mean           =   5.6546333291940E-01
(PID.TID 0000.0001) %MON dynstat_theta_sd             =   8.4905978453068E-01
(PID.TID 0000.0001) %MON dynstat_theta_del2           =   1.5372205069971E-06
(PID.TID 0000.0001) %MON dynstat_salt_max             =   3.4700000000000E+01
(PID.TID 0000.0001) %MON dynstat_salt_min             =   3.4000000000000E+01
(PID.TID 0000.0001) %MON dynstat_salt_mean            =   3.4498098688457E+01
(PID.TID 0000.0001) %MON dynstat_salt_sd              =   2.7015577119828E-01
(PID.TID 0000.0001) %MON dynstat_salt_del2            =   4.8148218500416E-07
(PID.TID 0000.0001) %MON advcfl_uvel_max              =   3.4641868693068E-04
(PID.TID 0000.0001) %MON advcfl_vvel_max              =   3.2075007791823E-04
(PID.TID 0000.0001) %MON advcfl_wvel_max              =   1.0960153593556E-03
(PID.TID 0000.0001) %MON advcfl_W_hf_max              =   1.0960153593556E-03
(PID.TID 0000.0001) %MON pe_b_mean                    =  -6.8290149572964E-01
(PID.TID 0000.0001) %MON ke_max                       =   5.8060921432704E-06
(PID.TID 0000.0001) %MON ke_mean                      =   7.4953056808877E-09
(PID.TID 0000.0001) %MON ke_vol                       =   4.6182873994359E+12
(PID.TID 0000.0001) // =======================================================
(PID.TID 0000.0001) // End MONITOR dynamic field statistics
(PID.TID 0000.0001) // =======================================================
(PID.TID 0000.0001) // =======================================================
(PID.TID 0000.0001) // Begin OBCS MONITOR field statistics
(PID.TID 0000.0001) // =======================================================
(PID.TID 0000.0001) %MON obc_N_vVel_max               =  -3.8662045374964E-07
(PID.TID 0000.0001) %MON obc_N_vVel_min               =  -3.8662045374964E-07
(PID.TID 0000.0001) %MON obc_N_vVel_mean              =  -3.8662045374964E-07
(PID.TID 0000.0001) %MON obc_N_vVel_sd                =   6.7781456992360E-14
(PID.TID 0000.0001) %MON obc_N_vVel_Int               =  -2.5516949947476E+01
(PID.TID 0000.0001) // =======================================================
(PID.TID 0000.0001) // End OBCS MONITOR field statistics
(PID.TID 0000.0001) // =======================================================
 cg2d: Sum(rhs),rhsMax =   3.01240500505914E+00  4.53053085098721E+02
(PID.TID 0000.0001)      cg2d_init_res =   2.44306373989580E-06
(PID.TID 0000.0001)      cg2d_iters(min,last) =      -1      67
(PID.TID 0000.0001)      cg2d_last_res =   9.80830058783028E-12
(PID.TID 0000.0001) // =======================================================
(PID.TID 0000.0001) // Begin MONITOR dynamic field statistics
(PID.TID 0000.0001) // =======================================================
(PID.TID 0000.0001) %MON time_tsnumber                =                   206
(PID.TID 0000.0001) %MON time_secondsf                =   2.0600000000000E+04
(PID.TID 0000.0001) %MON dynstat_eta_max              =   5.7960635232692E+00
(PID.TID 0000.0001) %MON dynstat_eta_min              =  -1.4177730898910E+01
(PID.TID 0000.0001) %MON dynstat_eta_mean             =  -2.5273692242757E+00
(PID.TID 0000.0001) %MON dynstat_eta_sd               =   4.9420727610606E+00
(PID.TID 0000.0001) %MON dynstat_eta_del2             =   1.9058058912252E-01
(PID.TID 0000.0001) %MON dynstat_uvel_max             =   2.4779354173301E-03
(PID.TID 0000.0001) %MON dynstat_uvel_min             =  -3.4702166581502E-03
(PID.TID 0000.0001) %MON dynstat_uvel_mean            =   5.1364634751046E-09
(PID.TID 0000.0001) %MON dynstat_uvel_sd              =   7.7288272033863E-05
(PID.TID 0000.0001) %MON dynstat_uvel_del2            =   3.8844566713065E-07
(PID.TID 0000.0001) %MON dynstat_vvel_max             =   3.2122066346076E-03
(PID.TID 0000.0001) %MON dynstat_vvel_min             =  -2.1505769866366E-03
(PID.TID 0000.0001) %MON dynstat_vvel_mean            =  -6.3757982210136E-07
(PID.TID 0000.0001) %MON dynstat_vvel_sd              =   9.5724493663548E-05
(PID.TID 0000.0001) %MON dynstat_vvel_del2            =   4.4206523471211E-07
(PID.TID 0000.0001) %MON dynstat_wvel_max             =   2.1916386884360E-04
(PID.TID 0000.0001) %MON dynstat_wvel_min             =  -1.3121290587269E-04
(PID.TID 0000.0001) %MON dynstat_wvel_mean            =  -8.1212201024291E-10
(PID.TID 0000.0001) %MON dynstat_wvel_sd              =   2.2835211906079E-05
(PID.TID 0000.0001) %MON dynstat_wvel_del2            =   1.1925506986544E-07
(PID.TID 0000.0001) %MON dynstat_theta_max            =   1.2000000000000E+00
(PID.TID 0000.0001) %MON dynstat_theta_min            =  -1.0000000000000E+00
(PID.TID 0000.0001) %MON dynstat_theta_mean           =   5.6546313044470E-01
(PID.TID 0000.0001) %MON dynstat_theta_sd             =   8.4905974147176E-01
(PID.TID 0000.0001) %MON dynstat_theta_del2           =   1.5304081116773E-06
(PID.TID 0000.0001) %MON dynstat_salt_max             =   3.4700000000000E+01
(PID.TID 0000.0001) %MON dynstat_salt_min             =   3.4000000000000E+01
(PID.TID 0000.0001) %MON dynstat_salt_mean            =   3.4498098608175E+01
(PID.TID 0000.0001) %MON dynstat_salt_sd              =   2.7015575919815E-01
(PID.TID 0000.0001) %MON dynstat_salt_del2            =   4.7942720092789E-07
(PID.TID 0000.0001) %MON advcfl_uvel_max              =   3.4702166581502E-04
(PID.TID 0000.0001) %MON advcfl_vvel_max              =   3.2122066346076E-04
(PID.TID 0000.0001) %MON advcfl_wvel_max              =   1.0958193442180E-03
(PID.TID 0000.0001) %MON advcfl_W_hf_max              =   1.0958193442180E-03
(PID.TID 0000.0001) %MON pe_b_mean                    =  -6.8290087643788E-01
(PID.TID 0000.0001) %MON ke_max                       =   5.8126229695487E-06
(PID.TID 0000.0001) %MON ke_mean                      =   7.5122336474931E-09
(PID.TID 0000.0001) %MON ke_vol                       =   4.6182874127273E+12
(PID.TID 0000.0001) // =======================================================
(PID.TID 0000.0001) // End MONITOR dynamic field statistics
(PID.TID 0000.0001) // =======================================================
(PID.TID 0000.0001) // =======================================================
(PID.TID 0000.0001) // Begin OBCS MONITOR field statistics
(PID.TID 0000.0001) // =======================================================
(PID.TID 0000.0001) %MON obc_N_vVel_max               =  -5.0614988394366E-07
(PID.TID 0000.0001) %MON obc_N_vVel_min               =  -5.0614988394367E-07
(PID.TID 0000.0001) %MON obc_N_vVel_mean              =  -5.0614988394367E-07
(PID.TID 0000.0001) %MON obc_N_vVel_sd                =  -2.1608477915814E-26
(PID.TID 0000.0001) %MON obc_N_vVel_Int               =  -3.3405892340282E+01
(PID.TID 0000.0001) // =======================================================
(PID.TID 0000.0001) // End OBCS MONITOR field statistics
(PID.TID 0000.0001) // =======================================================
 cg2d: Sum(rhs),rhsMax =   3.01240211952326E+00  4.53053074720377E+02
(PID.TID 0000.0001)      cg2d_init_res =   2.43823098337395E-06
(PID.TID 0000.0001)      cg2d_iters(min,last) =      -1      67
(PID.TID 0000.0001)      cg2d_last_res =   9.94308746318277E-12
(PID.TID 0000.0001) // =======================================================
(PID.TID 0000.0001) // Begin MONITOR dynamic field statistics
(PID.TID 0000.0001) // =======================================================
(PID.TID 0000.0001) %MON time_tsnumber                =                   207
(PID.TID 0000.0001) %MON time_secondsf                =   2.0700000000000E+04
(PID.TID 0000.0001) %MON dynstat_eta_max              =   5.7960672888655E+00
(PID.TID 0000.0001) %MON dynstat_eta_min              =  -1.4177723691139E+01
(PID.TID 0000.0001) %MON dynstat_eta_mean             =  -2.5273667454522E+00
(PID.TID 0000.0001) %MON dynstat_eta_sd               =   4.9420718720179E+00
(PID.TID 0000.0001) %MON dynstat_eta_del2             =   1.9058058915653E-01
(PID.TID 0000.0001) %MON dynstat_uvel_max             =   2.4740042609572E-03
(PID.TID 0000.0001) %MON dynstat_uvel_min             =  -3.4761207005893E-03
(PID.TID 0000.0001) %MON dynstat_uvel_mean            =   3.9271011299436E-09
(PID.TID 0000.0001) %MON dynstat_uvel_sd              =   7.7430174195931E-05
(PID.TID 0000.0001) %MON dynstat_uvel_del2            =   3.8763353016341E-07
(PID.TID 0000.0001) %MON dynstat_vvel_max             =   3.2168179306096E-03
(PID.TID 0000.0001) %MON dynstat_vvel_min             =  -2.1442924865731E-03
(PID.TID 0000.0001) %MON dynstat_vvel_mean            =  -7.2116865644395E-07
(PID.TID 0000.0001) %MON dynstat_vvel_sd              =   9.5797286496849E-05
(PID.TID 0000.0001) %MON dynstat_vvel_del2            =   4.4118240860445E-07
(PID.TID 0000.0001) %MON dynstat_wvel_max             =   2.1911487687436E-04
(PID.TID 0000.0001) %MON dynstat_wvel_min             =  -1.3609148928326E-04
(PID.TID 0000.0001) %MON dynstat_wvel_mean            =  -6.1002766414474E-10
(PID.TID 0000.0001) %MON dynstat_wvel_sd              =   2.2797852423457E-05
(PID.TID 0000.0001) %MON dynstat_wvel_del2            =   1.1915361185333E-07
(PID.TID 0000.0001) %MON dynstat_theta_max            =   1.2000000000000E+00
(PID.TID 0000.0001) %MON dynstat_theta_min            =  -1.0000000000000E+00
(PID.TID 0000.0001) %MON dynstat_theta_mean           =   5.6546292791697E-01
(PID.TID 0000.0001) %MON dynstat_theta_sd             =   8.4905969845303E-01
(PID.TID 0000.0001) %MON dynstat_theta_del2           =   1.5235630088029E-06
(PID.TID 0000.0001) %MON dynstat_salt_max             =   3.4700000000000E+01
(PID.TID 0000.0001) %MON dynstat_salt_min             =   3.4000000000000E+01
(PID.TID 0000.0001) %MON dynstat_salt_mean            =   3.4498098527876E+01
(PID.TID 0000.0001) %MON dynstat_salt_sd              =   2.7015574720900E-01
(PID.TID 0000.0001) %MON dynstat_salt_del2            =   4.7736292776502E-07
(PID.TID 0000.0001) %MON advcfl_uvel_max              =   3.4761207005893E-04
(PID.TID 0000.0001) %MON advcfl_vvel_max              =   3.2168179306096E-04
(PID.TID 0000.0001) %MON advcfl_wvel_max              =   1.0955743843718E-03
(PID.TID 0000.0001) %MON advcfl_W_hf_max              =   1.0955743843718E-03
(PID.TID 0000.0001) %MON pe_b_mean                    =  -6.8290024065004E-01
(PID.TID 0000.0001) %MON ke_max                       =   5.8187635380907E-06
(PID.TID 0000.0001) %MON ke_mean                      =   7.5300316062779E-09
(PID.TID 0000.0001) %MON ke_vol                       =   4.6182874268078E+12
(PID.TID 0000.0001) // =======================================================
(PID.TID 0000.0001) // End MONITOR dynamic field statistics
(PID.TID 0000.0001) // =======================================================
(PID.TID 0000.0001) // =======================================================
(PID.TID 0000.0001) // Begin OBCS MONITOR field statistics
(PID.TID 0000.0001) // =======================================================
(PID.TID 0000.0001) %MON obc_N_vVel_max               =  -6.0363780052979E-07
(PID.TID 0000.0001) %MON obc_N_vVel_min               =  -6.0363780052981E-07
(PID.TID 0000.0001) %MON obc_N_vVel_mean              =  -6.0363780052981E-07
(PID.TID 0000.0001) %MON obc_N_vVel_sd                =  -1.1511058328985E-26
(PID.TID 0000.0001) %MON obc_N_vVel_Int               =  -3.9840094834967E+01
(PID.TID 0000.0001) // =======================================================
(PID.TID 0000.0001) // End OBCS MONITOR field statistics
(PID.TID 0000.0001) // =======================================================
 cg2d: Sum(rhs),rhsMax =   3.01239913729396E+00  4.53053064087366E+02
(PID.TID 0000.0001)      cg2d_init_res =   2.43800818990506E-06
(PID.TID 0000.0001)      cg2d_iters(min,last) =      -1      68
(PID.TID 0000.0001)      cg2d_last_res =   7.77917956783605E-12
(PID.TID 0000.0001) // =======================================================
(PID.TID 0000.0001) // Begin MONITOR dynamic field statistics
(PID.TID 0000.0001) // =======================================================
(PID.TID 0000.0001) %MON time_tsnumber                =                   208
(PID.TID 0000.0001) %MON time_secondsf                =   2.0800000000000E+04
(PID.TID 0000.0001) %MON dynstat_eta_max              =   5.7960711589654E+00
(PID.TID 0000.0001) %MON dynstat_eta_min              =  -1.4177716389056E+01
(PID.TID 0000.0001) %MON dynstat_eta_mean             =  -2.5273641840836E+00
(PID.TID 0000.0001) %MON dynstat_eta_sd               =   4.9420709778976E+00
(PID.TID 0000.0001) %MON dynstat_eta_del2             =   1.9058058919109E-01
(PID.TID 0000.0001) %MON dynstat_uvel_max             =   2.4699263133918E-03
(PID.TID 0000.0001) %MON dynstat_uvel_min             =  -3.4818996964043E-03
(PID.TID 0000.0001) %MON dynstat_uvel_mean            =   2.6953459579612E-09
(PID.TID 0000.0001) %MON dynstat_uvel_sd              =   7.7573513510627E-05
(PID.TID 0000.0001) %MON dynstat_uvel_del2            =   3.8681789179237E-07
(PID.TID 0000.0001) %MON dynstat_vvel_max             =   3.2213353148238E-03
(PID.TID 0000.0001) %MON dynstat_vvel_min             =  -2.1378538734051E-03
(PID.TID 0000.0001) %MON dynstat_vvel_mean            =  -7.7880005457681E-07
(PID.TID 0000.0001) %MON dynstat_vvel_sd              =   9.5876710557728E-05
(PID.TID 0000.0001) %MON dynstat_vvel_del2            =   4.4038818020346E-07
(PID.TID 0000.0001) %MON dynstat_wvel_max             =   2.1905617357891E-04
(PID.TID 0000.0001) %MON dynstat_wvel_min             =  -1.3846327143291E-04
(PID.TID 0000.0001) %MON dynstat_wvel_mean            =  -4.0140740265754E-10
(PID.TID 0000.0001) %MON dynstat_wvel_sd              =   2.2773503433482E-05
(PID.TID 0000.0001) %MON dynstat_wvel_del2            =   1.1920926500556E-07
(PID.TID 0000.0001) %MON dynstat_theta_max            =   1.2000000000000E+00
(PID.TID 0000.0001) %MON dynstat_theta_min            =  -1.0000000000000E+00
(PID.TID 0000.0001) %MON dynstat_theta_mean           =   5.6546272534548E-01
(PID.TID 0000.0001) %MON dynstat_theta_sd             =   8.4905965543876E-01
(PID.TID 0000.0001) %MON dynstat_theta_del2           =   1.5167063204335E-06
(PID.TID 0000.0001) %MON dynstat_salt_max             =   3.4700000000000E+01
(PID.TID 0000.0001) %MON dynstat_salt_min             =   3.4000000000000E+01
(PID.TID 0000.0001) %MON dynstat_salt_mean            =   3.4498098447562E+01
(PID.TID 0000.0001) %MON dynstat_salt_sd              =   2.7015573521923E-01
(PID.TID 0000.0001) %MON dynstat_salt_del2            =   4.7529627999914E-07
(PID.TID 0000.0001) %MON advcfl_uvel_max              =   3.4818996964043E-04
(PID.TID 0000.0001) %MON advcfl_vvel_max              =   3.2213353148238E-04
(PID.TID 0000.0001) %MON advcfl_wvel_max              =   1.0952808678946E-03
(PID.TID 0000.0001) %MON advcfl_W_hf_max              =   1.0952808678946E-03
(PID.TID 0000.0001) %MON pe_b_mean                    =  -6.8289959387829E-01
(PID.TID 0000.0001) %MON ke_max                       =   5.8245178062939E-06
(PID.TID 0000.0001) %MON ke_mean                      =   7.5485862298743E-09
(PID.TID 0000.0001) %MON ke_vol                       =   4.6182874415320E+12
(PID.TID 0000.0001) // =======================================================
(PID.TID 0000.0001) // End MONITOR dynamic field statistics
(PID.TID 0000.0001) // =======================================================
(PID.TID 0000.0001) // =======================================================
(PID.TID 0000.0001) // Begin OBCS MONITOR field statistics
(PID.TID 0000.0001) // =======================================================
(PID.TID 0000.0001) %MON obc_N_vVel_max               =  -6.7788867161920E-07
(PID.TID 0000.0001) %MON obc_N_vVel_min               =  -6.7788867161921E-07
(PID.TID 0000.0001) %MON obc_N_vVel_mean              =  -6.7788867161921E-07
(PID.TID 0000.0001) %MON obc_N_vVel_sd                =   5.1237965343830E-14
(PID.TID 0000.0001) %MON obc_N_vVel_Int               =  -4.4740652326868E+01
(PID.TID 0000.0001) // =======================================================
(PID.TID 0000.0001) // End OBCS MONITOR field statistics
(PID.TID 0000.0001) // =======================================================
 cg2d: Sum(rhs),rhsMax =   3.01239608995875E+00  4.53053053154764E+02
(PID.TID 0000.0001)      cg2d_init_res =   2.44143189760631E-06
(PID.TID 0000.0001)      cg2d_iters(min,last) =      -1      68
(PID.TID 0000.0001)      cg2d_last_res =   7.79892122231682E-12
(PID.TID 0000.0001) // =======================================================
(PID.TID 0000.0001) // Begin MONITOR dynamic field statistics
(PID.TID 0000.0001) // =======================================================
(PID.TID 0000.0001) %MON time_tsnumber                =                   209
(PID.TID 0000.0001) %MON time_secondsf                =   2.0900000000000E+04
(PID.TID 0000.0001) %MON dynstat_eta_max              =   5.7960750912076E+00
(PID.TID 0000.0001) %MON dynstat_eta_min              =  -1.4177709048155E+01
(PID.TID 0000.0001) %MON dynstat_eta_mean             =  -2.5273615664209E+00
(PID.TID 0000.0001) %MON dynstat_eta_sd               =   4.9420700870564E+00
(PID.TID 0000.0001) %MON dynstat_eta_del2             =   1.9058058922125E-01
(PID.TID 0000.0001) %MON dynstat_uvel_max             =   2.4657027631374E-03
(PID.TID 0000.0001) %MON dynstat_uvel_min             =  -3.4875543669486E-03
(PID.TID 0000.0001) %MON dynstat_uvel_mean            =   1.4802806717191E-09
(PID.TID 0000.0001) %MON dynstat_uvel_sd              =   7.7718322014789E-05
(PID.TID 0000.0001) %MON dynstat_uvel_del2            =   3.8599896157899E-07
(PID.TID 0000.0001) %MON dynstat_vvel_max             =   3.2257591451001E-03
(PID.TID 0000.0001) %MON dynstat_vvel_min             =  -2.1312634850847E-03
(PID.TID 0000.0001) %MON dynstat_vvel_mean            =  -8.1079236881430E-07
(PID.TID 0000.0001) %MON dynstat_vvel_sd              =   9.5960776556840E-05
(PID.TID 0000.0001) %MON dynstat_vvel_del2            =   4.3964922663068E-07
(PID.TID 0000.0001) %MON dynstat_wvel_max             =   2.1898783295578E-04
(PID.TID 0000.0001) %MON dynstat_wvel_min             =  -1.3826578497071E-04
(PID.TID 0000.0001) %MON dynstat_wvel_mean            =  -1.9303870962609E-10
(PID.TID 0000.0001) %MON dynstat_wvel_sd              =   2.2757987021837E-05
(PID.TID 0000.0001) %MON dynstat_wvel_del2            =   1.1936340529456E-07
(PID.TID 0000.0001) %MON dynstat_theta_max            =   1.2000000000000E+00
(PID.TID 0000.0001) %MON dynstat_theta_min            =  -1.0000000000000E+00
(PID.TID 0000.0001) %MON dynstat_theta_mean           =   5.6546252273989E-01
(PID.TID 0000.0001) %MON dynstat_theta_sd             =   8.4905961240043E-01
(PID.TID 0000.0001) %MON dynstat_theta_del2           =   1.5098682836932E-06
(PID.TID 0000.0001) %MON dynstat_salt_max             =   3.4700000000000E+01
(PID.TID 0000.0001) %MON dynstat_salt_min             =   3.4000000000000E+01
(PID.TID 0000.0001) %MON dynstat_salt_mean            =   3.4498098367238E+01
(PID.TID 0000.0001) %MON dynstat_salt_sd              =   2.7015572322004E-01
(PID.TID 0000.0001) %MON dynstat_salt_del2            =   4.7323701751438E-07
(PID.TID 0000.0001) %MON advcfl_uvel_max              =   3.4875543669486E-04
(PID.TID 0000.0001) %MON advcfl_vvel_max              =   3.2257591451001E-04
(PID.TID 0000.0001) %MON advcfl_wvel_max              =   1.0949391647789E-03
(PID.TID 0000.0001) %MON advcfl_W_hf_max              =   1.0949391647789E-03
(PID.TID 0000.0001) %MON pe_b_mean                    =  -6.8289894152752E-01
(PID.TID 0000.0001) %MON ke_max                       =   5.8298893277233E-06
(PID.TID 0000.0001) %MON ke_mean                      =   7.5677070677141E-09
(PID.TID 0000.0001) %MON ke_vol                       =   4.6182874567465E+12
(PID.TID 0000.0001) // =======================================================
(PID.TID 0000.0001) // End MONITOR dynamic field statistics
(PID.TID 0000.0001) // =======================================================
(PID.TID 0000.0001) // =======================================================
(PID.TID 0000.0001) // Begin OBCS MONITOR field statistics
(PID.TID 0000.0001) // =======================================================
(PID.TID 0000.0001) %MON obc_N_vVel_max               =  -7.2851374127417E-07
(PID.TID 0000.0001) %MON obc_N_vVel_min               =  -7.2851374127419E-07
(PID.TID 0000.0001) %MON obc_N_vVel_mean              =  -7.2851374127419E-07
(PID.TID 0000.0001) %MON obc_N_vVel_sd                =  -3.9581884780369E-26
(PID.TID 0000.0001) %MON obc_N_vVel_Int               =  -4.8081906924097E+01
(PID.TID 0000.0001) // =======================================================
(PID.TID 0000.0001) // End OBCS MONITOR field statistics
(PID.TID 0000.0001) // =======================================================
 cg2d: Sum(rhs),rhsMax =   3.01239300853416E+00  4.53053041892459E+02
(PID.TID 0000.0001)      cg2d_init_res =   2.44703293690162E-06
(PID.TID 0000.0001)      cg2d_iters(min,last) =      -1      68
(PID.TID 0000.0001)      cg2d_last_res =   7.75076718610219E-12
(PID.TID 0000.0001) // =======================================================
(PID.TID 0000.0001) // Begin MONITOR dynamic field statistics
(PID.TID 0000.0001) // =======================================================
(PID.TID 0000.0001) %MON time_tsnumber                =                   210
(PID.TID 0000.0001) %MON time_secondsf                =   2.1000000000000E+04
(PID.TID 0000.0001) %MON dynstat_eta_max              =   5.7960790431199E+00
(PID.TID 0000.0001) %MON dynstat_eta_min              =  -1.4177701721622E+01
(PID.TID 0000.0001) %MON dynstat_eta_mean             =  -2.5273589183185E+00
(PID.TID 0000.0001) %MON dynstat_eta_sd               =   4.9420692071598E+00
(PID.TID 0000.0001) %MON dynstat_eta_del2             =   1.9058058924528E-01
(PID.TID 0000.0001) %MON dynstat_uvel_max             =   2.4613347475100E-03
(PID.TID 0000.0001) %MON dynstat_uvel_min             =  -3.4930853691295E-03
(PID.TID 0000.0001) %MON dynstat_uvel_mean            =   3.1727329864767E-10
(PID.TID 0000.0001) %MON dynstat_uvel_sd              =   7.7864632467430E-05
(PID.TID 0000.0001) %MON dynstat_uvel_del2            =   3.8517694706237E-07
(PID.TID 0000.0001) %MON dynstat_vvel_max             =   3.2300893888957E-03
(PID.TID 0000.0001) %MON dynstat_vvel_min             =  -2.1245241253958E-03
(PID.TID 0000.0001) %MON dynstat_vvel_mean            =  -8.1822115322390E-07
(PID.TID 0000.0001) %MON dynstat_vvel_sd              =   9.6046963533560E-05
(PID.TID 0000.0001) %MON dynstat_vvel_del2            =   4.3892547965094E-07
(PID.TID 0000.0001) %MON dynstat_wvel_max             =   2.1891000419989E-04
(PID.TID 0000.0001) %MON dynstat_wvel_min             =  -1.3548638556477E-04
(PID.TID 0000.0001) %MON dynstat_wvel_mean            =   8.8896427052059E-12
(PID.TID 0000.0001) %MON dynstat_wvel_sd              =   2.2746108211753E-05
(PID.TID 0000.0001) %MON dynstat_wvel_del2            =   1.1954657454044E-07
(PID.TID 0000.0001) %MON dynstat_theta_max            =   1.2000000000000E+00
(PID.TID 0000.0001) %MON dynstat_theta_min            =  -1.0000000000000E+00
(PID.TID 0000.0001) %MON dynstat_theta_mean           =   5.6546232011005E-01
(PID.TID 0000.0001) %MON dynstat_theta_sd             =   8.4905956928907E-01
(PID.TID 0000.0001) %MON dynstat_theta_del2           =   1.5030823017489E-06
(PID.TID 0000.0001) %MON dynstat_salt_max             =   3.4700000000000E+01
(PID.TID 0000.0001) %MON dynstat_salt_min             =   3.4000000000000E+01
(PID.TID 0000.0001) %MON dynstat_salt_mean            =   3.4498098286905E+01
(PID.TID 0000.0001) %MON dynstat_salt_sd              =   2.7015571119572E-01
(PID.TID 0000.0001) %MON dynstat_salt_del2            =   4.7119579847697E-07
(PID.TID 0000.0001) %MON advcfl_uvel_max              =   3.4930853691295E-04
(PID.TID 0000.0001) %MON advcfl_vvel_max              =   3.2300893888957E-04
(PID.TID 0000.0001) %MON advcfl_wvel_max              =   1.0945500209995E-03
(PID.TID 0000.0001) %MON advcfl_W_hf_max              =   1.0945500209995E-03
(PID.TID 0000.0001) %MON pe_b_mean                    =  -6.8289828874190E-01
(PID.TID 0000.0001) %MON ke_max                       =   5.8348810998765E-06
(PID.TID 0000.0001) %MON ke_mean                      =   7.5871547362036E-09
(PID.TID 0000.0001) %MON ke_vol                       =   4.6182874722955E+12
(PID.TID 0000.0001) // =======================================================
(PID.TID 0000.0001) // End MONITOR dynamic field statistics
(PID.TID 0000.0001) // =======================================================
(PID.TID 0000.0001) // =======================================================
(PID.TID 0000.0001) // Begin OBCS MONITOR field statistics
(PID.TID 0000.0001) // =======================================================
(PID.TID 0000.0001) %MON obc_N_vVel_max               =  -7.5587051940163E-07
(PID.TID 0000.0001) %MON obc_N_vVel_min               =  -7.5587051940164E-07
(PID.TID 0000.0001) %MON obc_N_vVel_mean              =  -7.5587051940164E-07
(PID.TID 0000.0001) %MON obc_N_vVel_sd                =  -3.3422458832404E-26
(PID.TID 0000.0001) %MON obc_N_vVel_Int               =  -4.9887454280508E+01
(PID.TID 0000.0001) // =======================================================
(PID.TID 0000.0001) // End OBCS MONITOR field statistics
(PID.TID 0000.0001) // =======================================================
 cg2d: Sum(rhs),rhsMax =   3.01238992263456E+00  4.53053030278548E+02
(PID.TID 0000.0001)      cg2d_init_res =   2.45324944089476E-06
(PID.TID 0000.0001)      cg2d_iters(min,last) =      -1      68
(PID.TID 0000.0001)      cg2d_last_res =   7.67780582673598E-12
(PID.TID 0000.0001) // =======================================================
(PID.TID 0000.0001) // Begin MONITOR dynamic field statistics
(PID.TID 0000.0001) // =======================================================
(PID.TID 0000.0001) %MON time_tsnumber                =                   211
(PID.TID 0000.0001) %MON time_secondsf                =   2.1100000000000E+04
(PID.TID 0000.0001) %MON dynstat_eta_max              =   5.7960829753552E+00
(PID.TID 0000.0001) %MON dynstat_eta_min              =  -1.4177694457550E+01
(PID.TID 0000.0001) %MON dynstat_eta_mean             =  -2.5273562645003E+00
(PID.TID 0000.0001) %MON dynstat_eta_sd               =   4.9420683448984E+00
(PID.TID 0000.0001) %MON dynstat_eta_del2             =   1.9058058926114E-01
(PID.TID 0000.0001) %MON dynstat_uvel_max             =   2.4568233656748E-03
(PID.TID 0000.0001) %MON dynstat_uvel_min             =  -3.4984933750453E-03
(PID.TID 0000.0001) %MON dynstat_uvel_mean            =  -7.6273962573007E-10
(PID.TID 0000.0001) %MON dynstat_uvel_sd              =   7.8012478317912E-05
(PID.TID 0000.0001) %MON dynstat_uvel_del2            =   3.8435205338460E-07
(PID.TID 0000.0001) %MON dynstat_vvel_max             =   3.2343257127829E-03
(PID.TID 0000.0001) %MON dynstat_vvel_min             =  -2.1176390410389E-03
(PID.TID 0000.0001) %MON dynstat_vvel_mean            =  -8.0282221482005E-07
(PID.TID 0000.0001) %MON dynstat_vvel_sd              =   9.6132577284071E-05
(PID.TID 0000.0001) %MON dynstat_vvel_del2            =   4.3817579680171E-07
(PID.TID 0000.0001) %MON dynstat_wvel_max             =   2.1882279780014E-04
(PID.TID 0000.0001) %MON dynstat_wvel_min             =  -1.3016320689384E-04
(PID.TID 0000.0001) %MON dynstat_wvel_mean            =   1.9863811584808E-10
(PID.TID 0000.0001) %MON dynstat_wvel_sd              =   2.2732380907204E-05
(PID.TID 0000.0001) %MON dynstat_wvel_del2            =   1.1968828534511E-07
(PID.TID 0000.0001) %MON dynstat_theta_max            =   1.2000000000000E+00
(PID.TID 0000.0001) %MON dynstat_theta_min            =  -1.0000000000000E+00
(PID.TID 0000.0001) %MON dynstat_theta_mean           =   5.6546211746557E-01
(PID.TID 0000.0001) %MON dynstat_theta_sd             =   8.4905952611668E-01
(PID.TID 0000.0001) %MON dynstat_theta_del2           =   1.4963803148405E-06
(PID.TID 0000.0001) %MON dynstat_salt_max             =   3.4700000000000E+01
(PID.TID 0000.0001) %MON dynstat_salt_min             =   3.4000000000000E+01
(PID.TID 0000.0001) %MON dynstat_salt_mean            =   3.4498098206567E+01
(PID.TID 0000.0001) %MON dynstat_salt_sd              =   2.7015569915029E-01
(PID.TID 0000.0001) %MON dynstat_salt_del2            =   4.6918299655769E-07
(PID.TID 0000.0001) %MON advcfl_uvel_max              =   3.4984933750453E-04
(PID.TID 0000.0001) %MON advcfl_vvel_max              =   3.2343257127829E-04
(PID.TID 0000.0001) %MON advcfl_wvel_max              =   1.0941139890007E-03
(PID.TID 0000.0001) %MON advcfl_W_hf_max              =   1.0941139890007E-03
(PID.TID 0000.0001) %MON pe_b_mean                    =  -6.8289764026635E-01
(PID.TID 0000.0001) %MON ke_max                       =   5.8394957158311E-06
(PID.TID 0000.0001) %MON ke_mean                      =   7.6066748477538E-09
(PID.TID 0000.0001) %MON ke_vol                       =   4.6182874880252E+12
(PID.TID 0000.0001) // =======================================================
(PID.TID 0000.0001) // End MONITOR dynamic field statistics
(PID.TID 0000.0001) // =======================================================
(PID.TID 0000.0001) // =======================================================
(PID.TID 0000.0001) // Begin OBCS MONITOR field statistics
(PID.TID 0000.0001) // =======================================================
(PID.TID 0000.0001) %MON obc_N_vVel_max               =  -7.6097656138821E-07
(PID.TID 0000.0001) %MON obc_N_vVel_min               =  -7.6097656138822E-07
(PID.TID 0000.0001) %MON obc_N_vVel_mean              =  -7.6097656138821E-07
(PID.TID 0000.0001) %MON obc_N_vVel_sd                =   7.1761298687264E-14
(PID.TID 0000.0001) %MON obc_N_vVel_Int               =  -5.0224453051622E+01
(PID.TID 0000.0001) // =======================================================
(PID.TID 0000.0001) // End OBCS MONITOR field statistics
(PID.TID 0000.0001) // =======================================================
 cg2d: Sum(rhs),rhsMax =   3.01238685962565E+00  4.53053018304016E+02
(PID.TID 0000.0001)      cg2d_init_res =   2.45849641780921E-06
(PID.TID 0000.0001)      cg2d_iters(min,last) =      -1      68
(PID.TID 0000.0001)      cg2d_last_res =   7.60085954800217E-12
(PID.TID 0000.0001) // =======================================================
(PID.TID 0000.0001) // Begin MONITOR dynamic field statistics
(PID.TID 0000.0001) // =======================================================
(PID.TID 0000.0001) %MON time_tsnumber                =                   212
(PID.TID 0000.0001) %MON time_secondsf                =   2.1200000000000E+04
(PID.TID 0000.0001) %MON dynstat_eta_max              =   5.7960868522656E+00
(PID.TID 0000.0001) %MON dynstat_eta_min              =  -1.4177687298277E+01
(PID.TID 0000.0001) %MON dynstat_eta_mean             =  -2.5273536278755E+00
(PID.TID 0000.0001) %MON dynstat_eta_sd               =   4.9420675058986E+00
(PID.TID 0000.0001) %MON dynstat_eta_del2             =   1.9058058926731E-01
(PID.TID 0000.0001) %MON dynstat_uvel_max             =   2.4521696731821E-03
(PID.TID 0000.0001) %MON dynstat_uvel_min             =  -3.5037790426007E-03
(PID.TID 0000.0001) %MON dynstat_uvel_mean            =  -1.7338318436848E-09
(PID.TID 0000.0001) %MON dynstat_uvel_sd              =   7.8161893594348E-05
(PID.TID 0000.0001) %MON dynstat_uvel_del2            =   3.8352448223206E-07
(PID.TID 0000.0001) %MON dynstat_vvel_max             =   3.2384675365060E-03
(PID.TID 0000.0001) %MON dynstat_vvel_min             =  -2.1106118289822E-03
(PID.TID 0000.0001) %MON dynstat_vvel_mean            =  -7.6688982196562E-07
(PID.TID 0000.0001) %MON dynstat_vvel_sd              =   9.6215116761249E-05
(PID.TID 0000.0001) %MON dynstat_vvel_del2            =   4.3736354887960E-07
(PID.TID 0000.0001) %MON dynstat_wvel_max             =   2.1872634324303E-04
(PID.TID 0000.0001) %MON dynstat_wvel_min             =  -1.2238507937712E-04
(PID.TID 0000.0001) %MON dynstat_wvel_mean            =   3.7146950721828E-10
(PID.TID 0000.0001) %MON dynstat_wvel_sd              =   2.2711756896506E-05
(PID.TID 0000.0001) %MON dynstat_wvel_del2            =   1.1972624400316E-07
(PID.TID 0000.0001) %MON dynstat_theta_max            =   1.2000000000000E+00
(PID.TID 0000.0001) %MON dynstat_theta_min            =  -1.0000000000000E+00
(PID.TID 0000.0001) %MON dynstat_theta_mean           =   5.6546191481559E-01
(PID.TID 0000.0001) %MON dynstat_theta_sd             =   8.4905948290780E-01
(PID.TID 0000.0001) %MON dynstat_theta_del2           =   1.4897906616158E-06
(PID.TID 0000.0001) %MON dynstat_salt_max             =   3.4700000000000E+01
(PID.TID 0000.0001) %MON dynstat_salt_min             =   3.4000000000000E+01
(PID.TID 0000.0001) %MON dynstat_salt_mean            =   3.4498098126227E+01
(PID.TID 0000.0001) %MON dynstat_salt_sd              =   2.7015568709139E-01
(PID.TID 0000.0001) %MON dynstat_salt_del2            =   4.6720767355420E-07
(PID.TID 0000.0001) %MON advcfl_uvel_max              =   3.5037790426007E-04
(PID.TID 0000.0001) %MON advcfl_vvel_max              =   3.2384675365060E-04
(PID.TID 0000.0001) %MON advcfl_wvel_max              =   1.0936317162152E-03
(PID.TID 0000.0001) %MON advcfl_W_hf_max              =   1.0936317162152E-03
(PID.TID 0000.0001) %MON pe_b_mean                    =  -6.8289700033455E-01
(PID.TID 0000.0001) %MON ke_max                       =   5.8437354205139E-06
(PID.TID 0000.0001) %MON ke_mean                      =   7.6260327040816E-09
(PID.TID 0000.0001) %MON ke_vol                       =   4.6182875037889E+12
(PID.TID 0000.0001) // =======================================================
(PID.TID 0000.0001) // End MONITOR dynamic field statistics
(PID.TID 0000.0001) // =======================================================
(PID.TID 0000.0001) // =======================================================
(PID.TID 0000.0001) // Begin OBCS MONITOR field statistics
(PID.TID 0000.0001) // =======================================================
(PID.TID 0000.0001) %MON obc_N_vVel_max               =  -7.4546453951011E-07
(PID.TID 0000.0001) %MON obc_N_vVel_min               =  -7.4546453951013E-07
(PID.TID 0000.0001) %MON obc_N_vVel_mean              =  -7.4546453951013E-07
(PID.TID 0000.0001) %MON obc_N_vVel_sd                =  -3.0494207152223E-26
(PID.TID 0000.0001) %MON obc_N_vVel_Int               =  -4.9200659607669E+01
(PID.TID 0000.0001) // =======================================================
(PID.TID 0000.0001) // End OBCS MONITOR field statistics
(PID.TID 0000.0001) // =======================================================
 cg2d: Sum(rhs),rhsMax =   3.01238384397477E+00  4.53053005972641E+02
(PID.TID 0000.0001)      cg2d_init_res =   2.46140302716465E-06
(PID.TID 0000.0001)      cg2d_iters(min,last) =      -1      67
(PID.TID 0000.0001)      cg2d_last_res =   9.85025444746103E-12
(PID.TID 0000.0001) // =======================================================
(PID.TID 0000.0001) // Begin MONITOR dynamic field statistics
(PID.TID 0000.0001) // =======================================================
(PID.TID 0000.0001) %MON time_tsnumber                =                   213
(PID.TID 0000.0001) %MON time_secondsf                =   2.1300000000000E+04
(PID.TID 0000.0001) %MON dynstat_eta_max              =   5.7960906438544E+00
(PID.TID 0000.0001) %MON dynstat_eta_min              =  -1.4177680278821E+01
(PID.TID 0000.0001) %MON dynstat_eta_mean             =  -2.5273510289929E+00
(PID.TID 0000.0001) %MON dynstat_eta_sd               =   4.9420666946116E+00
(PID.TID 0000.0001) %MON dynstat_eta_del2             =   1.9058058926133E-01
(PID.TID 0000.0001) %MON dynstat_uvel_max             =   2.4473746904352E-03
(PID.TID 0000.0001) %MON dynstat_uvel_min             =  -3.5089430298965E-03
(PID.TID 0000.0001) %MON dynstat_uvel_mean            =  -2.5754086842203E-09
(PID.TID 0000.0001) %MON dynstat_uvel_sd              =   7.8312912809505E-05
(PID.TID 0000.0001) %MON dynstat_uvel_del2            =   3.8269443091400E-07
(PID.TID 0000.0001) %MON dynstat_vvel_max             =   3.2425141074599E-03
(PID.TID 0000.0001) %MON dynstat_vvel_min             =  -2.1034463507359E-03
(PID.TID 0000.0001) %MON dynstat_vvel_mean            =  -7.1316106245222E-07
(PID.TID 0000.0001) %MON dynstat_vvel_sd              =   9.6292602189727E-05
(PID.TID 0000.0001) %MON dynstat_vvel_del2            =   4.3646141779859E-07
(PID.TID 0000.0001) %MON dynstat_wvel_max             =   2.1862076522236E-04
(PID.TID 0000.0001) %MON dynstat_wvel_min             =  -1.2290821802742E-04
(PID.TID 0000.0001) %MON dynstat_wvel_mean            =   5.2347856019013E-10
(PID.TID 0000.0001) %MON dynstat_wvel_sd              =   2.2680264356325E-05
(PID.TID 0000.0001) %MON dynstat_wvel_del2            =   1.1961388064302E-07
(PID.TID 0000.0001) %MON dynstat_theta_max            =   1.2000000000000E+00
(PID.TID 0000.0001) %MON dynstat_theta_min            =  -1.0000000000000E+00
(PID.TID 0000.0001) %MON dynstat_theta_mean           =   5.6546171216833E-01
(PID.TID 0000.0001) %MON dynstat_theta_sd             =   8.4905943969805E-01
(PID.TID 0000.0001) %MON dynstat_theta_del2           =   1.4833329636579E-06
(PID.TID 0000.0001) %MON dynstat_salt_max             =   3.4700000000000E+01
(PID.TID 0000.0001) %MON dynstat_salt_min             =   3.4000000000000E+01
(PID.TID 0000.0001) %MON dynstat_salt_mean            =   3.4498098045888E+01
(PID.TID 0000.0001) %MON dynstat_salt_sd              =   2.7015567503061E-01
(PID.TID 0000.0001) %MON dynstat_salt_del2            =   4.6527617240311E-07
(PID.TID 0000.0001) %MON advcfl_uvel_max              =   3.5089430298965E-04
(PID.TID 0000.0001) %MON advcfl_vvel_max              =   3.2425141074599E-04
(PID.TID 0000.0001) %MON advcfl_wvel_max              =   1.0931038261118E-03
(PID.TID 0000.0001) %MON advcfl_W_hf_max              =   1.0931038261118E-03
(PID.TID 0000.0001) %MON pe_b_mean                    =  -6.8289637258047E-01
(PID.TID 0000.0001) %MON ke_max                       =   5.8476022243007E-06
(PID.TID 0000.0001) %MON ke_mean                      =   7.6450443965557E-09
(PID.TID 0000.0001) %MON ke_vol                       =   4.6182875194504E+12
(PID.TID 0000.0001) // =======================================================
(PID.TID 0000.0001) // End MONITOR dynamic field statistics
(PID.TID 0000.0001) // =======================================================
(PID.TID 0000.0001) // =======================================================
(PID.TID 0000.0001) // Begin OBCS MONITOR field statistics
(PID.TID 0000.0001) // =======================================================
(PID.TID 0000.0001) %MON obc_N_vVel_max               =  -7.1145743952390E-07
(PID.TID 0000.0001) %MON obc_N_vVel_min               =  -7.1145743952391E-07
(PID.TID 0000.0001) %MON obc_N_vVel_mean              =  -7.1145743952390E-07
(PID.TID 0000.0001) %MON obc_N_vVel_sd                =   1.6388757152684E-13
(PID.TID 0000.0001) %MON obc_N_vVel_Int               =  -4.6956191008578E+01
(PID.TID 0000.0001) // =======================================================
(PID.TID 0000.0001) // End OBCS MONITOR field statistics
(PID.TID 0000.0001) // =======================================================
 cg2d: Sum(rhs),rhsMax =   3.01238089673096E+00  4.53052993301523E+02
(PID.TID 0000.0001)      cg2d_init_res =   2.46090733160344E-06
(PID.TID 0000.0001)      cg2d_iters(min,last) =      -1      67
(PID.TID 0000.0001)      cg2d_last_res =   9.51473108146075E-12
(PID.TID 0000.0001) // =======================================================
(PID.TID 0000.0001) // Begin MONITOR dynamic field statistics
(PID.TID 0000.0001) // =======================================================
(PID.TID 0000.0001) %MON time_tsnumber                =                   214
(PID.TID 0000.0001) %MON time_secondsf                =   2.1400000000000E+04
(PID.TID 0000.0001) %MON dynstat_eta_max              =   5.7960943218371E+00
(PID.TID 0000.0001) %MON dynstat_eta_min              =  -1.4177673429184E+01
(PID.TID 0000.0001) %MON dynstat_eta_mean             =  -2.5273484856079E+00
(PID.TID 0000.0001) %MON dynstat_eta_sd               =   4.9420659143536E+00
(PID.TID 0000.0001) %MON dynstat_eta_del2             =   1.9058058924580E-01
(PID.TID 0000.0001) %MON dynstat_uvel_max             =   2.4424394036622E-03
(PID.TID 0000.0001) %MON dynstat_uvel_min             =  -3.5139859643156E-03
(PID.TID 0000.0001) %MON dynstat_uvel_mean            =  -3.2724178900403E-09
(PID.TID 0000.0001) %MON dynstat_uvel_sd              =   7.8465570785752E-05
(PID.TID 0000.0001) %MON dynstat_uvel_del2            =   3.8186209074226E-07
(PID.TID 0000.0001) %MON dynstat_vvel_max             =   3.2464644823174E-03
(PID.TID 0000.0001) %MON dynstat_vvel_min             =  -2.0961466597225E-03
(PID.TID 0000.0001) %MON dynstat_vvel_mean            =  -6.4469855856505E-07
(PID.TID 0000.0001) %MON dynstat_vvel_sd              =   9.6363823059684E-05
(PID.TID 0000.0001) %MON dynstat_vvel_del2            =   4.3545480959086E-07
(PID.TID 0000.0001) %MON dynstat_wvel_max             =   2.1850623310277E-04
(PID.TID 0000.0001) %MON dynstat_wvel_min             =  -1.2082543146573E-04
(PID.TID 0000.0001) %MON dynstat_wvel_mean            =   6.5168560773427E-10
(PID.TID 0000.0001) %MON dynstat_wvel_sd              =   2.2635480789499E-05
(PID.TID 0000.0001) %MON dynstat_wvel_del2            =   1.1932548013152E-07
(PID.TID 0000.0001) %MON dynstat_theta_max            =   1.2000000000000E+00
(PID.TID 0000.0001) %MON dynstat_theta_min            =  -1.0000000000000E+00
(PID.TID 0000.0001) %MON dynstat_theta_mean           =   5.6546150953133E-01
(PID.TID 0000.0001) %MON dynstat_theta_sd             =   8.4905939652252E-01
(PID.TID 0000.0001) %MON dynstat_theta_del2           =   1.4770157478123E-06
(PID.TID 0000.0001) %MON dynstat_salt_max             =   3.4700000000000E+01
(PID.TID 0000.0001) %MON dynstat_salt_min             =   3.4000000000000E+01
(PID.TID 0000.0001) %MON dynstat_salt_mean            =   3.4498097965551E+01
(PID.TID 0000.0001) %MON dynstat_salt_sd              =   2.7015566297895E-01
(PID.TID 0000.0001) %MON dynstat_salt_del2            =   4.6339111959353E-07
(PID.TID 0000.0001) %MON advcfl_uvel_max              =   3.5139859643156E-04
(PID.TID 0000.0001) %MON advcfl_vvel_max              =   3.2464644823174E-04
(PID.TID 0000.0001) %MON advcfl_wvel_max              =   1.0925311655138E-03
(PID.TID 0000.0001) %MON advcfl_W_hf_max              =   1.0925311655138E-03
(PID.TID 0000.0001) %MON pe_b_mean                    =  -6.8289575997601E-01
(PID.TID 0000.0001) %MON ke_max                       =   5.8510978445185E-06
(PID.TID 0000.0001) %MON ke_mean                      =   7.6636003103975E-09
(PID.TID 0000.0001) %MON ke_vol                       =   4.6182875348878E+12
(PID.TID 0000.0001) // =======================================================
(PID.TID 0000.0001) // End MONITOR dynamic field statistics
(PID.TID 0000.0001) // =======================================================
(PID.TID 0000.0001) // =======================================================
(PID.TID 0000.0001) // Begin OBCS MONITOR field statistics
(PID.TID 0000.0001) // =======================================================
(PID.TID 0000.0001) %MON obc_N_vVel_max               =  -6.6147108909937E-07
(PID.TID 0000.0001) %MON obc_N_vVel_min               =  -6.6147108909939E-07
(PID.TID 0000.0001) %MON obc_N_vVel_mean              =  -6.6147108909937E-07
(PID.TID 0000.0001) %MON obc_N_vVel_sd                =   1.4544447062163E-13
(PID.TID 0000.0001) %MON obc_N_vVel_Int               =  -4.3657091880559E+01
(PID.TID 0000.0001) // =======================================================
(PID.TID 0000.0001) // End OBCS MONITOR field statistics
(PID.TID 0000.0001) // =======================================================
 cg2d: Sum(rhs),rhsMax =   3.01237803516201E+00  4.53052980318168E+02
(PID.TID 0000.0001)      cg2d_init_res =   2.45660283201902E-06
(PID.TID 0000.0001)      cg2d_iters(min,last) =      -1      67
(PID.TID 0000.0001)      cg2d_last_res =   9.22202958385901E-12
(PID.TID 0000.0001) // =======================================================
(PID.TID 0000.0001) // Begin MONITOR dynamic field statistics
(PID.TID 0000.0001) // =======================================================
(PID.TID 0000.0001) %MON time_tsnumber                =                   215
(PID.TID 0000.0001) %MON time_secondsf                =   2.1500000000000E+04
(PID.TID 0000.0001) %MON dynstat_eta_max              =   5.7960978668086E+00
(PID.TID 0000.0001) %MON dynstat_eta_min              =  -1.4177666769814E+01
(PID.TID 0000.0001) %MON dynstat_eta_mean             =  -2.5273460123614E+00
(PID.TID 0000.0001) %MON dynstat_eta_sd               =   4.9420651671704E+00
(PID.TID 0000.0001) %MON dynstat_eta_del2             =   1.9058058921918E-01
(PID.TID 0000.0001) %MON dynstat_uvel_max             =   2.4373647849778E-03
(PID.TID 0000.0001) %MON dynstat_uvel_min             =  -3.5189085175549E-03
(PID.TID 0000.0001) %MON dynstat_uvel_mean            =  -3.8153386737078E-09
(PID.TID 0000.0001) %MON dynstat_uvel_sd              =   7.8619902379711E-05
(PID.TID 0000.0001) %MON dynstat_uvel_del2            =   3.8102764591656E-07
(PID.TID 0000.0001) %MON dynstat_vvel_max             =   3.2503177408421E-03
(PID.TID 0000.0001) %MON dynstat_vvel_min             =  -2.0887168779797E-03
(PID.TID 0000.0001) %MON dynstat_vvel_mean            =  -5.6476786093420E-07
(PID.TID 0000.0001) %MON dynstat_vvel_sd              =   9.6428476640442E-05
(PID.TID 0000.0001) %MON dynstat_vvel_del2            =   4.3434350245663E-07
(PID.TID 0000.0001) %MON dynstat_wvel_max             =   2.1838285469910E-04
(PID.TID 0000.0001) %MON dynstat_wvel_min             =  -1.1591036326659E-04
(PID.TID 0000.0001) %MON dynstat_wvel_mean            =   7.5410663705981E-10
(PID.TID 0000.0001) %MON dynstat_wvel_sd              =   2.2576791712834E-05
(PID.TID 0000.0001) %MON dynstat_wvel_del2            =   1.1885858345820E-07
(PID.TID 0000.0001) %MON dynstat_theta_max            =   1.2000000000000E+00
(PID.TID 0000.0001) %MON dynstat_theta_min            =  -1.0000000000000E+00
(PID.TID 0000.0001) %MON dynstat_theta_mean           =   5.6546130691107E-01
(PID.TID 0000.0001) %MON dynstat_theta_sd             =   8.4905935337072E-01
(PID.TID 0000.0001) %MON dynstat_theta_del2           =   1.4708353967193E-06
(PID.TID 0000.0001) %MON dynstat_salt_max             =   3.4700000000000E+01
(PID.TID 0000.0001) %MON dynstat_salt_min             =   3.4000000000000E+01
(PID.TID 0000.0001) %MON dynstat_salt_mean            =   3.4498097885219E+01
(PID.TID 0000.0001) %MON dynstat_salt_sd              =   2.7015565093316E-01
(PID.TID 0000.0001) %MON dynstat_salt_del2            =   4.6155124887286E-07
(PID.TID 0000.0001) %MON advcfl_uvel_max              =   3.5189085175549E-04
(PID.TID 0000.0001) %MON advcfl_vvel_max              =   3.2503177408421E-04
(PID.TID 0000.0001) %MON advcfl_wvel_max              =   1.0919142734955E-03
(PID.TID 0000.0001) %MON advcfl_W_hf_max              =   1.0919142734955E-03
(PID.TID 0000.0001) %MON pe_b_mean                    =  -6.8289516479339E-01
(PID.TID 0000.0001) %MON ke_max                       =   5.8542240718928E-06
(PID.TID 0000.0001) %MON ke_mean                      =   7.6816781770239E-09
(PID.TID 0000.0001) %MON ke_vol                       =   4.6182875499955E+12
(PID.TID 0000.0001) // =======================================================
(PID.TID 0000.0001) // End MONITOR dynamic field statistics
(PID.TID 0000.0001) // =======================================================
(PID.TID 0000.0001) // =======================================================
(PID.TID 0000.0001) // Begin OBCS MONITOR field statistics
(PID.TID 0000.0001) // =======================================================
(PID.TID 0000.0001) %MON obc_N_vVel_max               =  -5.9830840552505E-07
(PID.TID 0000.0001) %MON obc_N_vVel_min               =  -5.9830840552506E-07
(PID.TID 0000.0001) %MON obc_N_vVel_mean              =  -5.9830840552505E-07
(PID.TID 0000.0001) %MON obc_N_vVel_sd                =   1.6480915838803E-13
(PID.TID 0000.0001) %MON obc_N_vVel_Int               =  -3.9488354764653E+01
(PID.TID 0000.0001) // =======================================================
(PID.TID 0000.0001) // End OBCS MONITOR field statistics
(PID.TID 0000.0001) // =======================================================
 cg2d: Sum(rhs),rhsMax =   3.01237527250617E+00  4.53052967063254E+02
(PID.TID 0000.0001)      cg2d_init_res =   2.44836594492820E-06
(PID.TID 0000.0001)      cg2d_iters(min,last) =      -1      67
(PID.TID 0000.0001)      cg2d_last_res =   8.89578144694498E-12
(PID.TID 0000.0001) // =======================================================
(PID.TID 0000.0001) // Begin MONITOR dynamic field statistics
(PID.TID 0000.0001) // =======================================================
(PID.TID 0000.0001) %MON time_tsnumber                =                   216
(PID.TID 0000.0001) %MON time_secondsf                =   2.1600000000000E+04
(PID.TID 0000.0001) %MON dynstat_eta_max              =   5.7961012639126E+00
(PID.TID 0000.0001) %MON dynstat_eta_min              =  -1.4177660314235E+01
(PID.TID 0000.0001) %MON dynstat_eta_mean             =  -2.5273436205868E+00
(PID.TID 0000.0001) %MON dynstat_eta_sd               =   4.9420644539624E+00
(PID.TID 0000.0001) %MON dynstat_eta_del2             =   1.9058058918185E-01
(PID.TID 0000.0001) %MON dynstat_uvel_max             =   2.4321517768264E-03
(PID.TID 0000.0001) %MON dynstat_uvel_min             =  -3.5237113372326E-03
(PID.TID 0000.0001) %MON dynstat_uvel_mean            =  -4.2000830341615E-09
(PID.TID 0000.0001) %MON dynstat_uvel_sd              =   7.8775942310978E-05
(PID.TID 0000.0001) %MON dynstat_uvel_del2            =   3.8019127284883E-07
(PID.TID 0000.0001) %MON dynstat_vvel_max             =   3.2540728972084E-03
(PID.TID 0000.0001) %MON dynstat_vvel_min             =  -2.0811611337237E-03
(PID.TID 0000.0001) %MON dynstat_vvel_mean            =  -4.7672234377648E-07
(PID.TID 0000.0001) %MON dynstat_vvel_sd              =   9.6487183682398E-05
(PID.TID 0000.0001) %MON dynstat_vvel_del2            =   4.3314138562799E-07
(PID.TID 0000.0001) %MON dynstat_wvel_max             =   2.1825078161713E-04
(PID.TID 0000.0001) %MON dynstat_wvel_min             =  -1.1026409127986E-04
(PID.TID 0000.0001) %MON dynstat_wvel_mean            =   8.2965878282977E-10
(PID.TID 0000.0001) %MON dynstat_wvel_sd              =   2.2505417900329E-05
(PID.TID 0000.0001) %MON dynstat_wvel_del2            =   1.1823363557757E-07
(PID.TID 0000.0001) %MON dynstat_theta_max            =   1.2000000000000E+00
(PID.TID 0000.0001) %MON dynstat_theta_min            =  -1.0000000000000E+00
(PID.TID 0000.0001) %MON dynstat_theta_mean           =   5.6546110431277E-01
(PID.TID 0000.0001) %MON dynstat_theta_sd             =   8.4905931023786E-01
(PID.TID 0000.0001) %MON dynstat_theta_del2           =   1.4647775642441E-06
(PID.TID 0000.0001) %MON dynstat_salt_max             =   3.4700000000000E+01
(PID.TID 0000.0001) %MON dynstat_salt_min             =   3.4000000000000E+01
(PID.TID 0000.0001) %MON dynstat_salt_mean            =   3.4498097804894E+01
(PID.TID 0000.0001) %MON dynstat_salt_sd              =   2.7015563889173E-01
(PID.TID 0000.0001) %MON dynstat_salt_del2            =   4.5975176742554E-07
(PID.TID 0000.0001) %MON advcfl_uvel_max              =   3.5237113372326E-04
(PID.TID 0000.0001) %MON advcfl_vvel_max              =   3.2540728972084E-04
(PID.TID 0000.0001) %MON advcfl_wvel_max              =   1.0912539080857E-03
(PID.TID 0000.0001) %MON advcfl_W_hf_max              =   1.0912539080857E-03
(PID.TID 0000.0001) %MON pe_b_mean                    =  -6.8289458859155E-01
(PID.TID 0000.0001) %MON ke_max                       =   5.8569825836612E-06
(PID.TID 0000.0001) %MON ke_mean                      =   7.6993443726643E-09
(PID.TID 0000.0001) %MON ke_vol                       =   4.6182875646866E+12
(PID.TID 0000.0001) // =======================================================
(PID.TID 0000.0001) // End MONITOR dynamic field statistics
(PID.TID 0000.0001) // =======================================================
(PID.TID 0000.0001) // =======================================================
(PID.TID 0000.0001) // Begin OBCS MONITOR field statistics
(PID.TID 0000.0001) // =======================================================
(PID.TID 0000.0001) %MON obc_N_vVel_max               =  -5.2494524418306E-07
(PID.TID 0000.0001) %MON obc_N_vVel_min               =  -5.2494524418307E-07
(PID.TID 0000.0001) %MON obc_N_vVel_mean              =  -5.2494524418307E-07
(PID.TID 0000.0001) %MON obc_N_vVel_sd                =  -3.3321484636536E-27
(PID.TID 0000.0001) %MON obc_N_vVel_Int               =  -3.4646386116083E+01
(PID.TID 0000.0001) // =======================================================
(PID.TID 0000.0001) // End OBCS MONITOR field statistics
(PID.TID 0000.0001) // =======================================================
 cg2d: Sum(rhs),rhsMax =   3.01237261789783E+00  4.53052953587273E+02
(PID.TID 0000.0001)      cg2d_init_res =   2.43663826132346E-06
(PID.TID 0000.0001)      cg2d_iters(min,last) =      -1      67
(PID.TID 0000.0001)      cg2d_last_res =   8.52816865352202E-12
(PID.TID 0000.0001) // =======================================================
(PID.TID 0000.0001) // Begin MONITOR dynamic field statistics
(PID.TID 0000.0001) // =======================================================
(PID.TID 0000.0001) %MON time_tsnumber                =                   217
(PID.TID 0000.0001) %MON time_secondsf                =   2.1700000000000E+04
(PID.TID 0000.0001) %MON dynstat_eta_max              =   5.7961045038665E+00
(PID.TID 0000.0001) %MON dynstat_eta_min              =  -1.4177654068679E+01
(PID.TID 0000.0001) %MON dynstat_eta_mean             =  -2.5273413182297E+00
(PID.TID 0000.0001) %MON dynstat_eta_sd               =   4.9420637745294E+00
(PID.TID 0000.0001) %MON dynstat_eta_del2             =   1.9058058913460E-01
(PID.TID 0000.0001) %MON dynstat_uvel_max             =   2.4268013129376E-03
(PID.TID 0000.0001) %MON dynstat_uvel_min             =  -3.5283950831428E-03
(PID.TID 0000.0001) %MON dynstat_uvel_mean            =  -4.4277025296495E-09
(PID.TID 0000.0001) %MON dynstat_uvel_sd              =   7.8933724747231E-05
(PID.TID 0000.0001) %MON dynstat_uvel_del2            =   3.7935313784452E-07
(PID.TID 0000.0001) %MON dynstat_vvel_max             =   3.2577290178484E-03
(PID.TID 0000.0001) %MON dynstat_vvel_min             =  -2.0734834808955E-03
(PID.TID 0000.0001) %MON dynstat_vvel_mean            =  -3.8389273769374E-07
(PID.TID 0000.0001) %MON dynstat_vvel_sd              =   9.6541384053445E-05
(PID.TID 0000.0001) %MON dynstat_vvel_del2            =   4.3187438298603E-07
(PID.TID 0000.0001) %MON dynstat_wvel_max             =   2.1811015114938E-04
(PID.TID 0000.0001) %MON dynstat_wvel_min             =  -1.1670582419066E-04
(PID.TID 0000.0001) %MON dynstat_wvel_mean            =   8.7818780899211E-10
(PID.TID 0000.0001) %MON dynstat_wvel_sd              =   2.2424213972154E-05
(PID.TID 0000.0001) %MON dynstat_wvel_del2            =   1.1749100736892E-07
(PID.TID 0000.0001) %MON dynstat_theta_max            =   1.2000000000000E+00
(PID.TID 0000.0001) %MON dynstat_theta_min            =  -1.0000000000000E+00
(PID.TID 0000.0001) %MON dynstat_theta_mean           =   5.6546090174036E-01
(PID.TID 0000.0001) %MON dynstat_theta_sd             =   8.4905926711285E-01
(PID.TID 0000.0001) %MON dynstat_theta_del2           =   1.4588170722224E-06
(PID.TID 0000.0001) %MON dynstat_salt_max             =   3.4700000000000E+01
(PID.TID 0000.0001) %MON dynstat_salt_min             =   3.4000000000000E+01
(PID.TID 0000.0001) %MON dynstat_salt_mean            =   3.4498097724577E+01
(PID.TID 0000.0001) %MON dynstat_salt_sd              =   2.7015562685113E-01
(PID.TID 0000.0001) %MON dynstat_salt_del2            =   4.5798453859727E-07
(PID.TID 0000.0001) %MON advcfl_uvel_max              =   3.5283950831428E-04
(PID.TID 0000.0001) %MON advcfl_vvel_max              =   3.2577290178484E-04
(PID.TID 0000.0001) %MON advcfl_wvel_max              =   1.0905507557469E-03
(PID.TID 0000.0001) %MON advcfl_W_hf_max              =   1.0905507557469E-03
(PID.TID 0000.0001) %MON pe_b_mean                    =  -6.8289403222635E-01
(PID.TID 0000.0001) %MON ke_max                       =   5.8593751445838E-06
(PID.TID 0000.0001) %MON ke_mean                      =   7.7167436726386E-09
(PID.TID 0000.0001) %MON ke_vol                       =   4.6182875788937E+12
(PID.TID 0000.0001) // =======================================================
(PID.TID 0000.0001) // End MONITOR dynamic field statistics
(PID.TID 0000.0001) // =======================================================
(PID.TID 0000.0001) // =======================================================
(PID.TID 0000.0001) // Begin OBCS MONITOR field statistics
(PID.TID 0000.0001) // =======================================================
(PID.TID 0000.0001) %MON obc_N_vVel_max               =  -4.4443063318629E-07
(PID.TID 0000.0001) %MON obc_N_vVel_min               =  -4.4443063318631E-07
(PID.TID 0000.0001) %MON obc_N_vVel_mean              =  -4.4443063318631E-07
(PID.TID 0000.0001) %MON obc_N_vVel_sd                =  -2.1583234366847E-26
(PID.TID 0000.0001) %MON obc_N_vVel_Int               =  -2.9332421790296E+01
(PID.TID 0000.0001) // =======================================================
(PID.TID 0000.0001) // End OBCS MONITOR field statistics
(PID.TID 0000.0001) // =======================================================
 cg2d: Sum(rhs),rhsMax =   3.01237007641372E+00  4.53052939948969E+02
(PID.TID 0000.0001)      cg2d_init_res =   2.42228883581686E-06
(PID.TID 0000.0001)      cg2d_iters(min,last) =      -1      66
(PID.TID 0000.0001)      cg2d_last_res =   9.92460820964028E-12
(PID.TID 0000.0001) // =======================================================
(PID.TID 0000.0001) // Begin MONITOR dynamic field statistics
(PID.TID 0000.0001) // =======================================================
(PID.TID 0000.0001) %MON time_tsnumber                =                   218
(PID.TID 0000.0001) %MON time_secondsf                =   2.1800000000000E+04
(PID.TID 0000.0001) %MON dynstat_eta_max              =   5.7961075840195E+00
(PID.TID 0000.0001) %MON dynstat_eta_min              =  -1.4177648032391E+01
(PID.TID 0000.0001) %MON dynstat_eta_mean             =  -2.5273391098769E+00
(PID.TID 0000.0001) %MON dynstat_eta_sd               =   4.9420631276754E+00
(PID.TID 0000.0001) %MON dynstat_eta_del2             =   1.9058058907841E-01
(PID.TID 0000.0001) %MON dynstat_uvel_max             =   2.4213143129028E-03
(PID.TID 0000.0001) %MON dynstat_uvel_min             =  -3.5329604247865E-03
(PID.TID 0000.0001) %MON dynstat_uvel_mean            =  -4.5039455468791E-09
(PID.TID 0000.0001) %MON dynstat_uvel_sd              =   7.9093283038501E-05
(PID.TID 0000.0001) %MON dynstat_uvel_del2            =   3.7851339687588E-07
(PID.TID 0000.0001) %MON dynstat_vvel_max             =   3.2612852587599E-03
(PID.TID 0000.0001) %MON dynstat_vvel_min             =  -2.0656878282370E-03
(PID.TID 0000.0001) %MON dynstat_vvel_mean            =  -2.8948560904192E-07
(PID.TID 0000.0001) %MON dynstat_vvel_sd              =   9.6593126147145E-05
(PID.TID 0000.0001) %MON dynstat_vvel_del2            =   4.3057683976485E-07
(PID.TID 0000.0001) %MON dynstat_wvel_max             =   2.1796109855869E-04
(PID.TID 0000.0001) %MON dynstat_wvel_min             =  -1.2170725412362E-04
(PID.TID 0000.0001) %MON dynstat_wvel_mean            =   9.0038058381505E-10
(PID.TID 0000.0001) %MON dynstat_wvel_sd              =   2.2337265368279E-05
(PID.TID 0000.0001) %MON dynstat_wvel_del2            =   1.1668569370623E-07
(PID.TID 0000.0001) %MON dynstat_theta_max            =   1.2000000000000E+00
(PID.TID 0000.0001) %MON dynstat_theta_min            =  -1.0000000000000E+00
(PID.TID 0000.0001) %MON dynstat_theta_mean           =   5.6546069919623E-01
(PID.TID 0000.0001) %MON dynstat_theta_sd             =   8.4905922400961E-01
(PID.TID 0000.0001) %MON dynstat_theta_del2           =   1.4529220669003E-06
(PID.TID 0000.0001) %MON dynstat_salt_max             =   3.4700000000000E+01
(PID.TID 0000.0001) %MON dynstat_salt_min             =   3.4000000000000E+01
(PID.TID 0000.0001) %MON dynstat_salt_mean            =   3.4498097644268E+01
(PID.TID 0000.0001) %MON dynstat_salt_sd              =   2.7015561481562E-01
(PID.TID 0000.0001) %MON dynstat_salt_del2            =   4.5623929248629E-07
(PID.TID 0000.0001) %MON advcfl_uvel_max              =   3.5329604247865E-04
(PID.TID 0000.0001) %MON advcfl_vvel_max              =   3.2612852587599E-04
(PID.TID 0000.0001) %MON advcfl_wvel_max              =   1.0898054927934E-03
(PID.TID 0000.0001) %MON advcfl_W_hf_max              =   1.0898054927934E-03
(PID.TID 0000.0001) %MON pe_b_mean                    =  -6.8289349588108E-01
(PID.TID 0000.0001) %MON ke_max                       =   5.8614036510100E-06
(PID.TID 0000.0001) %MON ke_mean                      =   7.7340788287813E-09
(PID.TID 0000.0001) %MON ke_vol                       =   4.6182875925697E+12
(PID.TID 0000.0001) // =======================================================
(PID.TID 0000.0001) // End MONITOR dynamic field statistics
(PID.TID 0000.0001) // =======================================================
(PID.TID 0000.0001) // =======================================================
(PID.TID 0000.0001) // Begin OBCS MONITOR field statistics
(PID.TID 0000.0001) // =======================================================
(PID.TID 0000.0001) %MON obc_N_vVel_max               =  -3.5978470569281E-07
(PID.TID 0000.0001) %MON obc_N_vVel_min               =  -3.5978470569282E-07
(PID.TID 0000.0001) %MON obc_N_vVel_mean              =  -3.5978470569281E-07
(PID.TID 0000.0001) %MON obc_N_vVel_sd                =   9.0716023740382E-14
(PID.TID 0000.0001) %MON obc_N_vVel_Int               =  -2.3745790575725E+01
(PID.TID 0000.0001) // =======================================================
(PID.TID 0000.0001) // End OBCS MONITOR field statistics
(PID.TID 0000.0001) // =======================================================
 cg2d: Sum(rhs),rhsMax =   3.01236764924309E+00  4.53052926214920E+02
(PID.TID 0000.0001)      cg2d_init_res =   2.40642936118262E-06
(PID.TID 0000.0001)      cg2d_iters(min,last) =      -1      66
(PID.TID 0000.0001)      cg2d_last_res =   9.46615371191494E-12
(PID.TID 0000.0001) // =======================================================
(PID.TID 0000.0001) // Begin MONITOR dynamic field statistics
(PID.TID 0000.0001) // =======================================================
(PID.TID 0000.0001) %MON time_tsnumber                =                   219
(PID.TID 0000.0001) %MON time_secondsf                =   2.1900000000000E+04
(PID.TID 0000.0001) %MON dynstat_eta_max              =   5.7961105026967E+00
(PID.TID 0000.0001) %MON dynstat_eta_min              =  -1.4177642199377E+01
(PID.TID 0000.0001) %MON dynstat_eta_mean             =  -2.5273369968977E+00
(PID.TID 0000.0001) %MON dynstat_eta_sd               =   4.9420625112987E+00
(PID.TID 0000.0001) %MON dynstat_eta_del2             =   1.9058058901618E-01
(PID.TID 0000.0001) %MON dynstat_uvel_max             =   2.4156917222751E-03
(PID.TID 0000.0001) %MON dynstat_uvel_min             =  -3.5374080395636E-03
(PID.TID 0000.0001) %MON dynstat_uvel_mean            =  -4.4388517970233E-09
(PID.TID 0000.0001) %MON dynstat_uvel_sd              =   7.9254649329374E-05
(PID.TID 0000.0001) %MON dynstat_uvel_del2            =   3.7767219411176E-07
(PID.TID 0000.0001) %MON dynstat_vvel_max             =   3.2647409182207E-03
(PID.TID 0000.0001) %MON dynstat_vvel_min             =  -2.0577778570203E-03
(PID.TID 0000.0001) %MON dynstat_vvel_mean            =  -1.9649597493692E-07
(PID.TID 0000.0001) %MON dynstat_vvel_sd              =   9.6644783154588E-05
(PID.TID 0000.0001) %MON dynstat_vvel_del2            =   4.2928687722814E-07
(PID.TID 0000.0001) %MON dynstat_wvel_max             =   2.1780375539443E-04
(PID.TID 0000.0001) %MON dynstat_wvel_min             =  -1.2683822386587E-04
(PID.TID 0000.0001) %MON dynstat_wvel_mean            =   8.9767095721984E-10
(PID.TID 0000.0001) %MON dynstat_wvel_sd              =   2.2249337692445E-05
(PID.TID 0000.0001) %MON dynstat_wvel_del2            =   1.1588021256496E-07
(PID.TID 0000.0001) %MON dynstat_theta_max            =   1.2000000000000E+00
(PID.TID 0000.0001) %MON dynstat_theta_min            =  -1.0000000000000E+00
(PID.TID 0000.0001) %MON dynstat_theta_mean           =   5.6546049668199E-01
(PID.TID 0000.0001) %MON dynstat_theta_sd             =   8.4905918092134E-01
(PID.TID 0000.0001) %MON dynstat_theta_del2           =   1.4470594133994E-06
(PID.TID 0000.0001) %MON dynstat_salt_max             =   3.4700000000000E+01
(PID.TID 0000.0001) %MON dynstat_salt_min             =   3.4000000000000E+01
(PID.TID 0000.0001) %MON dynstat_salt_mean            =   3.4498097563969E+01
(PID.TID 0000.0001) %MON dynstat_salt_sd              =   2.7015560278341E-01
(PID.TID 0000.0001) %MON dynstat_salt_del2            =   4.5450516855528E-07
(PID.TID 0000.0001) %MON advcfl_uvel_max              =   3.5374080395636E-04
(PID.TID 0000.0001) %MON advcfl_vvel_max              =   3.2647409182207E-04
(PID.TID 0000.0001) %MON advcfl_wvel_max              =   1.0890187769721E-03
(PID.TID 0000.0001) %MON advcfl_W_hf_max              =   1.0890187769721E-03
(PID.TID 0000.0001) %MON pe_b_mean                    =  -6.8289297911722E-01
(PID.TID 0000.0001) %MON ke_max                       =   5.8630702365425E-06
(PID.TID 0000.0001) %MON ke_mean                      =   7.7515831573000E-09
(PID.TID 0000.0001) %MON ke_vol                       =   4.6182876056873E+12
(PID.TID 0000.0001) // =======================================================
(PID.TID 0000.0001) // End MONITOR dynamic field statistics
(PID.TID 0000.0001) // =======================================================
(PID.TID 0000.0001) // =======================================================
(PID.TID 0000.0001) // Begin OBCS MONITOR field statistics
(PID.TID 0000.0001) // =======================================================
(PID.TID 0000.0001) %MON obc_N_vVel_max               =  -2.7390719040688E-07
(PID.TID 0000.0001) %MON obc_N_vVel_min               =  -2.7390719040689E-07
(PID.TID 0000.0001) %MON obc_N_vVel_mean              =  -2.7390719040688E-07
(PID.TID 0000.0001) %MON obc_N_vVel_sd                =  -1.8932661725304E-27
(PID.TID 0000.0001) %MON obc_N_vVel_Int               =  -1.8077874566854E+01
(PID.TID 0000.0001) // =======================================================
(PID.TID 0000.0001) // End OBCS MONITOR field statistics
(PID.TID 0000.0001) // =======================================================
 cg2d: Sum(rhs),rhsMax =   3.01236533397100E+00  4.53052912455555E+02
(PID.TID 0000.0001)      cg2d_init_res =   2.39054681975218E-06
(PID.TID 0000.0001)      cg2d_iters(min,last) =      -1      66
(PID.TID 0000.0001)      cg2d_last_res =   9.06501897438676E-12
(PID.TID 0000.0001) // =======================================================
(PID.TID 0000.0001) // Begin MONITOR dynamic field statistics
(PID.TID 0000.0001) // =======================================================
(PID.TID 0000.0001) %MON time_tsnumber                =                   220
(PID.TID 0000.0001) %MON time_secondsf                =   2.2000000000000E+04
(PID.TID 0000.0001) %MON dynstat_eta_max              =   5.7961132670906E+00
(PID.TID 0000.0001) %MON dynstat_eta_min              =  -1.4177636556473E+01
(PID.TID 0000.0001) %MON dynstat_eta_mean             =  -2.5273349776587E+00
(PID.TID 0000.0001) %MON dynstat_eta_sd               =   4.9420619225695E+00
(PID.TID 0000.0001) %MON dynstat_eta_del2             =   1.9058058894913E-01
(PID.TID 0000.0001) %MON dynstat_uvel_max             =   2.4099344554482E-03
(PID.TID 0000.0001) %MON dynstat_uvel_min             =  -3.5417386140058E-03
(PID.TID 0000.0001) %MON dynstat_uvel_mean            =  -4.2460204192842E-09
(PID.TID 0000.0001) %MON dynstat_uvel_sd              =   7.9417854453676E-05
(PID.TID 0000.0001) %MON dynstat_uvel_del2            =   3.7682966350319E-07
(PID.TID 0000.0001) %MON dynstat_vvel_max             =   3.2680954450255E-03
(PID.TID 0000.0001) %MON dynstat_vvel_min             =  -2.0497570144666E-03
(PID.TID 0000.0001) %MON dynstat_vvel_mean            =  -1.0762870873749E-07
(PID.TID 0000.0001) %MON dynstat_vvel_sd              =   9.6698733866776E-05
(PID.TID 0000.0001) %MON dynstat_vvel_del2            =   4.2804131703653E-07
(PID.TID 0000.0001) %MON dynstat_wvel_max             =   2.1763824691259E-04
(PID.TID 0000.0001) %MON dynstat_wvel_min             =  -1.2999017926908E-04
(PID.TID 0000.0001) %MON dynstat_wvel_mean            =   8.7216748325011E-10
(PID.TID 0000.0001) %MON dynstat_wvel_sd              =   2.2165241372217E-05
(PID.TID 0000.0001) %MON dynstat_wvel_del2            =   1.1513641546947E-07
(PID.TID 0000.0001) %MON dynstat_theta_max            =   1.2000000000000E+00
(PID.TID 0000.0001) %MON dynstat_theta_min            =  -1.0000000000000E+00
(PID.TID 0000.0001) %MON dynstat_theta_mean           =   5.6546029419808E-01
(PID.TID 0000.0001) %MON dynstat_theta_sd             =   8.4905913781800E-01
(PID.TID 0000.0001) %MON dynstat_theta_del2           =   1.4411990917630E-06
(PID.TID 0000.0001) %MON dynstat_salt_max             =   3.4700000000000E+01
(PID.TID 0000.0001) %MON dynstat_salt_min             =   3.4000000000000E+01
(PID.TID 0000.0001) %MON dynstat_salt_mean            =   3.4498097483678E+01
(PID.TID 0000.0001) %MON dynstat_salt_sd              =   2.7015559074470E-01
(PID.TID 0000.0001) %MON dynstat_salt_del2            =   4.5277231662766E-07
(PID.TID 0000.0001) %MON advcfl_uvel_max              =   3.5417386140058E-04
(PID.TID 0000.0001) %MON advcfl_vvel_max              =   3.2680954450255E-04
(PID.TID 0000.0001) %MON advcfl_wvel_max              =   1.0881912345630E-03
(PID.TID 0000.0001) %MON advcfl_W_hf_max              =   1.0881912345630E-03
(PID.TID 0000.0001) %MON pe_b_mean                    =  -6.8289248093829E-01
(PID.TID 0000.0001) %MON ke_max                       =   5.8643772384215E-06
(PID.TID 0000.0001) %MON ke_mean                      =   7.7694898083022E-09
(PID.TID 0000.0001) %MON ke_vol                       =   4.6182876182384E+12
(PID.TID 0000.0001) // =======================================================
(PID.TID 0000.0001) // End MONITOR dynamic field statistics
(PID.TID 0000.0001) // =======================================================
(PID.TID 0000.0001) // =======================================================
(PID.TID 0000.0001) // Begin OBCS MONITOR field statistics
(PID.TID 0000.0001) // =======================================================
(PID.TID 0000.0001) %MON obc_N_vVel_max               =  -1.8950029993859E-07
(PID.TID 0000.0001) %MON obc_N_vVel_min               =  -1.8950029993860E-07
(PID.TID 0000.0001) %MON obc_N_vVel_mean              =  -1.8950029993859E-07
(PID.TID 0000.0001) %MON obc_N_vVel_sd                =   3.1875583852295E-14
(PID.TID 0000.0001) %MON obc_N_vVel_Int               =  -1.2507019795947E+01
(PID.TID 0000.0001) // =======================================================
(PID.TID 0000.0001) // End OBCS MONITOR field statistics
(PID.TID 0000.0001) // =======================================================
 cg2d: Sum(rhs),rhsMax =   3.01236312492573E+00  4.53052898746450E+02
(PID.TID 0000.0001)      cg2d_init_res =   2.37587532821838E-06
(PID.TID 0000.0001)      cg2d_iters(min,last) =      -1      66
(PID.TID 0000.0001)      cg2d_last_res =   8.72616133956185E-12
(PID.TID 0000.0001) // =======================================================
(PID.TID 0000.0001) // Begin MONITOR dynamic field statistics
(PID.TID 0000.0001) // =======================================================
(PID.TID 0000.0001) %MON time_tsnumber                =                   221
(PID.TID 0000.0001) %MON time_secondsf                =   2.2100000000000E+04
(PID.TID 0000.0001) %MON dynstat_eta_max              =   5.7961158870720E+00
(PID.TID 0000.0001) %MON dynstat_eta_min              =  -1.4177631086444E+01
(PID.TID 0000.0001) %MON dynstat_eta_mean             =  -2.5273330478232E+00
(PID.TID 0000.0001) %MON dynstat_eta_sd               =   4.9420613580513E+00
(PID.TID 0000.0001) %MON dynstat_eta_del2             =   1.9058058887938E-01
(PID.TID 0000.0001) %MON dynstat_uvel_max             =   2.4040434561314E-03
(PID.TID 0000.0001) %MON dynstat_uvel_min             =  -3.5459528468205E-03
(PID.TID 0000.0001) %MON dynstat_uvel_mean            =  -3.9419616218625E-09
(PID.TID 0000.0001) %MON dynstat_uvel_sd              =   7.9582927735572E-05
(PID.TID 0000.0001) %MON dynstat_uvel_del2            =   3.7598592939112E-07
(PID.TID 0000.0001) %MON dynstat_vvel_max             =   3.2713484869387E-03
(PID.TID 0000.0001) %MON dynstat_vvel_min             =  -2.0416284333837E-03
(PID.TID 0000.0001) %MON dynstat_vvel_mean            =  -2.5239777568125E-08
(PID.TID 0000.0001) %MON dynstat_vvel_sd              =   9.6757051563001E-05
(PID.TID 0000.0001) %MON dynstat_vvel_del2            =   4.2687085803420E-07
(PID.TID 0000.0001) %MON dynstat_wvel_max             =   2.1746469350834E-04
(PID.TID 0000.0001) %MON dynstat_wvel_min             =  -1.3079320343975E-04
(PID.TID 0000.0001) %MON dynstat_wvel_mean            =   8.2646442812634E-10
(PID.TID 0000.0001) %MON dynstat_wvel_sd              =   2.2089199631709E-05
(PID.TID 0000.0001) %MON dynstat_wvel_del2            =   1.1450725383690E-07
(PID.TID 0000.0001) %MON dynstat_theta_max            =   1.2000000000000E+00
(PID.TID 0000.0001) %MON dynstat_theta_min            =  -1.0000000000000E+00
(PID.TID 0000.0001) %MON dynstat_theta_mean           =   5.6546009174352E-01
(PID.TID 0000.0001) %MON dynstat_theta_sd             =   8.4905909467840E-01
(PID.TID 0000.0001) %MON dynstat_theta_del2           =   1.4353170139764E-06
(PID.TID 0000.0001) %MON dynstat_salt_max             =   3.4700000000000E+01
(PID.TID 0000.0001) %MON dynstat_salt_min             =   3.4000000000000E+01
(PID.TID 0000.0001) %MON dynstat_salt_mean            =   3.4498097403397E+01
(PID.TID 0000.0001) %MON dynstat_salt_sd              =   2.7015557869288E-01
(PID.TID 0000.0001) %MON dynstat_salt_del2            =   4.5103302730824E-07
(PID.TID 0000.0001) %MON advcfl_uvel_max              =   3.5459528468205E-04
(PID.TID 0000.0001) %MON advcfl_vvel_max              =   3.2713484869387E-04
(PID.TID 0000.0001) %MON advcfl_wvel_max              =   1.0873234675417E-03
(PID.TID 0000.0001) %MON advcfl_W_hf_max              =   1.0873234675417E-03
(PID.TID 0000.0001) %MON pe_b_mean                    =  -6.8289199986531E-01
(PID.TID 0000.0001) %MON ke_max                       =   5.8653273135046E-06
(PID.TID 0000.0001) %MON ke_mean                      =   7.7880018804634E-09
(PID.TID 0000.0001) %MON ke_vol                       =   4.6182876302327E+12
(PID.TID 0000.0001) // =======================================================
(PID.TID 0000.0001) // End MONITOR dynamic field statistics
(PID.TID 0000.0001) // =======================================================
(PID.TID 0000.0001) // =======================================================
(PID.TID 0000.0001) // Begin OBCS MONITOR field statistics
(PID.TID 0000.0001) // =======================================================
(PID.TID 0000.0001) %MON obc_N_vVel_max               =  -1.0899484781423E-07
(PID.TID 0000.0001) %MON obc_N_vVel_min               =  -1.0899484781423E-07
(PID.TID 0000.0001) %MON obc_N_vVel_mean              =  -1.0899484781423E-07
(PID.TID 0000.0001) %MON obc_N_vVel_sd                =  -8.5354749944913E-28
(PID.TID 0000.0001) %MON obc_N_vVel_Int               =  -7.1936599557392E+00
(PID.TID 0000.0001) // =======================================================
(PID.TID 0000.0001) // End OBCS MONITOR field statistics
(PID.TID 0000.0001) // =======================================================
 cg2d: Sum(rhs),rhsMax =   3.01236101364966E+00  4.53052885160318E+02
(PID.TID 0000.0001)      cg2d_init_res =   2.36352379824595E-06
(PID.TID 0000.0001)      cg2d_iters(min,last) =      -1      66
(PID.TID 0000.0001)      cg2d_last_res =   8.44145899673118E-12
(PID.TID 0000.0001) // =======================================================
(PID.TID 0000.0001) // Begin MONITOR dynamic field statistics
(PID.TID 0000.0001) // =======================================================
(PID.TID 0000.0001) %MON time_tsnumber                =                   222
(PID.TID 0000.0001) %MON time_secondsf                =   2.2200000000000E+04
(PID.TID 0000.0001) %MON dynstat_eta_max              =   5.7961183758647E+00
(PID.TID 0000.0001) %MON dynstat_eta_min              =  -1.4177625768238E+01
(PID.TID 0000.0001) %MON dynstat_eta_mean             =  -2.5273312007008E+00
(PID.TID 0000.0001) %MON dynstat_eta_sd               =   4.9420608138668E+00
(PID.TID 0000.0001) %MON dynstat_eta_del2             =   1.9058058880937E-01
(PID.TID 0000.0001) %MON dynstat_uvel_max             =   2.3980196771500E-03
(PID.TID 0000.0001) %MON dynstat_uvel_min             =  -3.5500514493385E-03
(PID.TID 0000.0001) %MON dynstat_uvel_mean            =  -3.5453121438583E-09
(PID.TID 0000.0001) %MON dynstat_uvel_sd              =   7.9749896578578E-05
(PID.TID 0000.0001) %MON dynstat_uvel_del2            =   3.7514110487014E-07
(PID.TID 0000.0001) %MON dynstat_vvel_max             =   3.2744998937098E-03
(PID.TID 0000.0001) %MON dynstat_vvel_min             =  -2.0333949322531E-03
(PID.TID 0000.0001) %MON dynstat_vvel_mean            =   4.8708389914200E-08
(PID.TID 0000.0001) %MON dynstat_vvel_sd              =   9.6821242060673E-05
(PID.TID 0000.0001) %MON dynstat_vvel_del2            =   4.2579614419400E-07
(PID.TID 0000.0001) %MON dynstat_wvel_max             =   2.1728320720079E-04
(PID.TID 0000.0001) %MON dynstat_wvel_min             =  -1.2921483581170E-04
(PID.TID 0000.0001) %MON dynstat_wvel_mean            =   7.6360239753821E-10
(PID.TID 0000.0001) %MON dynstat_wvel_sd              =   2.2024300287348E-05
(PID.TID 0000.0001) %MON dynstat_wvel_del2            =   1.1402963400981E-07
(PID.TID 0000.0001) %MON dynstat_theta_max            =   1.2000000000000E+00
(PID.TID 0000.0001) %MON dynstat_theta_min            =  -1.0000000000000E+00
(PID.TID 0000.0001) %MON dynstat_theta_mean           =   5.6545988931596E-01
(PID.TID 0000.0001) %MON dynstat_theta_sd             =   8.4905905151793E-01
(PID.TID 0000.0001) %MON dynstat_theta_del2           =   1.4293981917444E-06
(PID.TID 0000.0001) %MON dynstat_salt_max             =   3.4700000000000E+01
(PID.TID 0000.0001) %MON dynstat_salt_min             =   3.4000000000000E+01
(PID.TID 0000.0001) %MON dynstat_salt_mean            =   3.4498097323123E+01
(PID.TID 0000.0001) %MON dynstat_salt_sd              =   2.7015556663288E-01
(PID.TID 0000.0001) %MON dynstat_salt_del2            =   4.4928242040454E-07
(PID.TID 0000.0001) %MON advcfl_uvel_max              =   3.5500514493385E-04
(PID.TID 0000.0001) %MON advcfl_vvel_max              =   3.2744998937098E-04
(PID.TID 0000.0001) %MON advcfl_wvel_max              =   1.0864160360040E-03
(PID.TID 0000.0001) %MON advcfl_W_hf_max              =   1.0864160360040E-03
(PID.TID 0000.0001) %MON pe_b_mean                    =  -6.8289153402201E-01
(PID.TID 0000.0001) %MON ke_max                       =   5.8659234274906E-06
(PID.TID 0000.0001) %MON ke_mean                      =   7.8072672866941E-09
(PID.TID 0000.0001) %MON ke_vol                       =   4.6182876416959E+12
(PID.TID 0000.0001) // =======================================================
(PID.TID 0000.0001) // End MONITOR dynamic field statistics
(PID.TID 0000.0001) // =======================================================
(PID.TID 0000.0001) // =======================================================
(PID.TID 0000.0001) // Begin OBCS MONITOR field statistics
(PID.TID 0000.0001) // =======================================================
(PID.TID 0000.0001) %MON obc_N_vVel_max               =  -3.4505434835046E-08
(PID.TID 0000.0001) %MON obc_N_vVel_min               =  -3.4505434835046E-08
(PID.TID 0000.0001) %MON obc_N_vVel_mean              =  -3.4505434835046E-08
(PID.TID 0000.0001) %MON obc_N_vVel_sd                =  -7.4941785995996E-30
(PID.TID 0000.0001) %MON obc_N_vVel_Int               =  -2.2773586991130E+00
(PID.TID 0000.0001) // =======================================================
(PID.TID 0000.0001) // End OBCS MONITOR field statistics
(PID.TID 0000.0001) // =======================================================
 cg2d: Sum(rhs),rhsMax =   3.01235898936692E+00  4.53052871770021E+02
(PID.TID 0000.0001)      cg2d_init_res =   2.35423478408040E-06
(PID.TID 0000.0001)      cg2d_iters(min,last) =      -1      66
(PID.TID 0000.0001)      cg2d_last_res =   8.20344705243209E-12
(PID.TID 0000.0001) // =======================================================
(PID.TID 0000.0001) // Begin MONITOR dynamic field statistics
(PID.TID 0000.0001) // =======================================================
(PID.TID 0000.0001) %MON time_tsnumber                =                   223
(PID.TID 0000.0001) %MON time_secondsf                =   2.2300000000000E+04
(PID.TID 0000.0001) %MON dynstat_eta_max              =   5.7961207493568E+00
(PID.TID 0000.0001) %MON dynstat_eta_min              =  -1.4177620578001E+01
(PID.TID 0000.0001) %MON dynstat_eta_mean             =  -2.5273294276573E+00
(PID.TID 0000.0001) %MON dynstat_eta_sd               =   4.9420602858514E+00
(PID.TID 0000.0001) %MON dynstat_eta_del2             =   1.9058058874143E-01
(PID.TID 0000.0001) %MON dynstat_uvel_max             =   2.3918640875209E-03
(PID.TID 0000.0001) %MON dynstat_uvel_min             =  -3.5540351315144E-03
(PID.TID 0000.0001) %MON dynstat_uvel_mean            =  -3.0761290677014E-09
(PID.TID 0000.0001) %MON dynstat_uvel_sd              =   7.9918786411396E-05
(PID.TID 0000.0001) %MON dynstat_uvel_del2            =   3.7429529399627E-07
(PID.TID 0000.0001) %MON dynstat_vvel_max             =   3.2775497325206E-03
(PID.TID 0000.0001) %MON dynstat_vvel_min             =  -2.0250589926256E-03
(PID.TID 0000.0001) %MON dynstat_vvel_mean            =   1.1267603401791E-07
(PID.TID 0000.0001) %MON dynstat_vvel_sd              =   9.6892063278829E-05
(PID.TID 0000.0001) %MON dynstat_vvel_del2            =   4.2482522867760E-07
(PID.TID 0000.0001) %MON dynstat_wvel_max             =   2.1709389265849E-04
(PID.TID 0000.0001) %MON dynstat_wvel_min             =  -1.2526800853336E-04
(PID.TID 0000.0001) %MON dynstat_wvel_mean            =   6.8690216158959E-10
(PID.TID 0000.0001) %MON dynstat_wvel_sd              =   2.1972107929735E-05
(PID.TID 0000.0001) %MON dynstat_wvel_del2            =   1.1371949660573E-07
(PID.TID 0000.0001) %MON dynstat_theta_max            =   1.2000000000000E+00
(PID.TID 0000.0001) %MON dynstat_theta_min            =  -1.0000000000000E+00
(PID.TID 0000.0001) %MON dynstat_theta_mean           =   5.6545968691272E-01
(PID.TID 0000.0001) %MON dynstat_theta_sd             =   8.4905900831833E-01
(PID.TID 0000.0001) %MON dynstat_theta_del2           =   1.4234396189232E-06
(PID.TID 0000.0001) %MON dynstat_salt_max             =   3.4700000000000E+01
(PID.TID 0000.0001) %MON dynstat_salt_min             =   3.4000000000000E+01
(PID.TID 0000.0001) %MON dynstat_salt_mean            =   3.4498097242857E+01
(PID.TID 0000.0001) %MON dynstat_salt_sd              =   2.7015555455868E-01
(PID.TID 0000.0001) %MON dynstat_salt_del2            =   4.4751945298363E-07
(PID.TID 0000.0001) %MON advcfl_uvel_max              =   3.5540351315144E-04
(PID.TID 0000.0001) %MON advcfl_vvel_max              =   3.2775497325206E-04
(PID.TID 0000.0001) %MON advcfl_wvel_max              =   1.0854694632925E-03
(PID.TID 0000.0001) %MON advcfl_W_hf_max              =   1.0854694632925E-03
(PID.TID 0000.0001) %MON pe_b_mean                    =  -6.8289108122762E-01
(PID.TID 0000.0001) %MON ke_max                       =   5.8661688828653E-06
(PID.TID 0000.0001) %MON ke_mean                      =   7.8273614801598E-09
(PID.TID 0000.0001) %MON ke_vol                       =   4.6182876526678E+12
(PID.TID 0000.0001) // =======================================================
(PID.TID 0000.0001) // End MONITOR dynamic field statistics
(PID.TID 0000.0001) // =======================================================
(PID.TID 0000.0001) // =======================================================
(PID.TID 0000.0001) // Begin OBCS MONITOR field statistics
(PID.TID 0000.0001) // =======================================================
(PID.TID 0000.0001) %MON obc_N_vVel_max               =   3.2213923883830E-08
(PID.TID 0000.0001) %MON obc_N_vVel_min               =   3.2213923883829E-08
(PID.TID 0000.0001) %MON obc_N_vVel_mean              =   3.2213923883829E-08
(PID.TID 0000.0001) %MON obc_N_vVel_sd                =   6.7349463286806E-15
(PID.TID 0000.0001) %MON obc_N_vVel_Int               =   2.1261189763327E+00
(PID.TID 0000.0001) // =======================================================
(PID.TID 0000.0001) // End OBCS MONITOR field statistics
(PID.TID 0000.0001) // =======================================================
 cg2d: Sum(rhs),rhsMax =   3.01235703951585E+00  4.53052858644666E+02
(PID.TID 0000.0001)      cg2d_init_res =   2.34830997996572E-06
(PID.TID 0000.0001)      cg2d_iters(min,last) =      -1      66
(PID.TID 0000.0001)      cg2d_last_res =   8.02824208013981E-12
(PID.TID 0000.0001) // =======================================================
(PID.TID 0000.0001) // Begin MONITOR dynamic field statistics
(PID.TID 0000.0001) // =======================================================
(PID.TID 0000.0001) %MON time_tsnumber                =                   224
(PID.TID 0000.0001) %MON time_secondsf                =   2.2400000000000E+04
(PID.TID 0000.0001) %MON dynstat_eta_max              =   5.7961230254954E+00
(PID.TID 0000.0001) %MON dynstat_eta_min              =  -1.4177615490008E+01
(PID.TID 0000.0001) %MON dynstat_eta_mean             =  -2.5273277185390E+00
(PID.TID 0000.0001) %MON dynstat_eta_sd               =   4.9420597697039E+00
(PID.TID 0000.0001) %MON dynstat_eta_del2             =   1.9058058867754E-01
(PID.TID 0000.0001) %MON dynstat_uvel_max             =   2.3855776747919E-03
(PID.TID 0000.0001) %MON dynstat_uvel_min             =  -3.5579046206557E-03
(PID.TID 0000.0001) %MON dynstat_uvel_mean            =  -2.5551619453503E-09
(PID.TID 0000.0001) %MON dynstat_uvel_sd              =   8.0089620671344E-05
(PID.TID 0000.0001) %MON dynstat_uvel_del2            =   3.7344859461959E-07
(PID.TID 0000.0001) %MON dynstat_vvel_max             =   3.2804982889703E-03
(PID.TID 0000.0001) %MON dynstat_vvel_min             =  -2.0166227578340E-03
(PID.TID 0000.0001) %MON dynstat_vvel_mean            =   1.6555950488345E-07
(PID.TID 0000.0001) %MON dynstat_vvel_sd              =   9.6969447200888E-05
(PID.TID 0000.0001) %MON dynstat_vvel_del2            =   4.2395275964178E-07
(PID.TID 0000.0001) %MON dynstat_wvel_max             =   2.1689684774207E-04
(PID.TID 0000.0001) %MON dynstat_wvel_min             =  -1.1901146508579E-04
(PID.TID 0000.0001) %MON dynstat_wvel_mean            =   5.9984019232004E-10
(PID.TID 0000.0001) %MON dynstat_wvel_sd              =   2.1932490433321E-05
(PID.TID 0000.0001) %MON dynstat_wvel_del2            =   1.1356996859641E-07
(PID.TID 0000.0001) %MON dynstat_theta_max            =   1.2000000000000E+00
(PID.TID 0000.0001) %MON dynstat_theta_min            =  -1.0000000000000E+00
(PID.TID 0000.0001) %MON dynstat_theta_mean           =   5.6545948453061E-01
(PID.TID 0000.0001) %MON dynstat_theta_sd             =   8.4905896507004E-01
(PID.TID 0000.0001) %MON dynstat_theta_del2           =   1.4174481418402E-06
(PID.TID 0000.0001) %MON dynstat_salt_max             =   3.4700000000000E+01
(PID.TID 0000.0001) %MON dynstat_salt_min             =   3.4000000000000E+01
(PID.TID 0000.0001) %MON dynstat_salt_mean            =   3.4498097162597E+01
(PID.TID 0000.0001) %MON dynstat_salt_sd              =   2.7015554246764E-01
(PID.TID 0000.0001) %MON dynstat_salt_del2            =   4.4574619578764E-07
(PID.TID 0000.0001) %MON advcfl_uvel_max              =   3.5579046206557E-04
(PID.TID 0000.0001) %MON advcfl_vvel_max              =   3.2804982889703E-04
(PID.TID 0000.0001) %MON advcfl_wvel_max              =   1.0844842387104E-03
(PID.TID 0000.0001) %MON advcfl_W_hf_max              =   1.0844842387104E-03
(PID.TID 0000.0001) %MON pe_b_mean                    =  -6.8289063908876E-01
(PID.TID 0000.0001) %MON ke_max                       =   5.8660673223809E-06
(PID.TID 0000.0001) %MON ke_mean                      =   7.8482799845598E-09
(PID.TID 0000.0001) %MON ke_vol                       =   4.6182876631997E+12
(PID.TID 0000.0001) // =======================================================
(PID.TID 0000.0001) // End MONITOR dynamic field statistics
(PID.TID 0000.0001) // =======================================================
(PID.TID 0000.0001) // =======================================================
(PID.TID 0000.0001) // Begin OBCS MONITOR field statistics
(PID.TID 0000.0001) // =======================================================
(PID.TID 0000.0001) %MON obc_N_vVel_max               =   8.9794329536339E-08
(PID.TID 0000.0001) %MON obc_N_vVel_min               =   8.9794329536337E-08
(PID.TID 0000.0001) %MON obc_N_vVel_mean              =   8.9794329536337E-08
(PID.TID 0000.0001) %MON obc_N_vVel_sd                =   2.2504415147964E-14
(PID.TID 0000.0001) %MON obc_N_vVel_Int               =   5.9264257493983E+00
(PID.TID 0000.0001) // =======================================================
(PID.TID 0000.0001) // End OBCS MONITOR field statistics
(PID.TID 0000.0001) // =======================================================
 cg2d: Sum(rhs),rhsMax =   3.01235515028267E+00  4.53052845847778E+02
(PID.TID 0000.0001)      cg2d_init_res =   2.34555711321358E-06
(PID.TID 0000.0001)      cg2d_iters(min,last) =      -1      65
(PID.TID 0000.0001)      cg2d_last_res =   9.94973367590141E-12
(PID.TID 0000.0001) // =======================================================
(PID.TID 0000.0001) // Begin MONITOR dynamic field statistics
(PID.TID 0000.0001) // =======================================================
(PID.TID 0000.0001) %MON time_tsnumber                =                   225
(PID.TID 0000.0001) %MON time_secondsf                =   2.2500000000000E+04
(PID.TID 0000.0001) %MON dynstat_eta_max              =   5.7961252237007E+00
(PID.TID 0000.0001) %MON dynstat_eta_min              =  -1.4177610476971E+01
(PID.TID 0000.0001) %MON dynstat_eta_mean             =  -2.5273260621107E+00
(PID.TID 0000.0001) %MON dynstat_eta_sd               =   4.9420592611202E+00
(PID.TID 0000.0001) %MON dynstat_eta_del2             =   1.9058058861822E-01
(PID.TID 0000.0001) %MON dynstat_uvel_max             =   2.3791614460134E-03
(PID.TID 0000.0001) %MON dynstat_uvel_min             =  -3.5616606563007E-03
(PID.TID 0000.0001) %MON dynstat_uvel_mean            =  -2.0030839599796E-09
(PID.TID 0000.0001) %MON dynstat_uvel_sd              =   8.0262420546718E-05
(PID.TID 0000.0001) %MON dynstat_uvel_del2            =   3.7260109668175E-07
(PID.TID 0000.0001) %MON dynstat_vvel_max             =   3.2833460679802E-03
(PID.TID 0000.0001) %MON dynstat_vvel_min             =  -2.0080880270914E-03
(PID.TID 0000.0001) %MON dynstat_vvel_mean            =   2.0669011015720E-07
(PID.TID 0000.0001) %MON dynstat_vvel_sd              =   9.7052532674554E-05
(PID.TID 0000.0001) %MON dynstat_vvel_del2            =   4.2316095900981E-07
(PID.TID 0000.0001) %MON dynstat_wvel_max             =   2.1669216443872E-04
(PID.TID 0000.0001) %MON dynstat_wvel_min             =  -1.1681328583080E-04
(PID.TID 0000.0001) %MON dynstat_wvel_mean            =   5.0594559559256E-10
(PID.TID 0000.0001) %MON dynstat_wvel_sd              =   2.1903681981401E-05
(PID.TID 0000.0001) %MON dynstat_wvel_del2            =   1.1355288842182E-07
(PID.TID 0000.0001) %MON dynstat_theta_max            =   1.2000000000000E+00
(PID.TID 0000.0001) %MON dynstat_theta_min            =  -1.0000000000000E+00
(PID.TID 0000.0001) %MON dynstat_theta_mean           =   5.6545928216593E-01
(PID.TID 0000.0001) %MON dynstat_theta_sd             =   8.4905892180688E-01
(PID.TID 0000.0001) %MON dynstat_theta_del2           =   1.4114403187552E-06
(PID.TID 0000.0001) %MON dynstat_salt_max             =   3.4700000000000E+01
(PID.TID 0000.0001) %MON dynstat_salt_min             =   3.4000000000000E+01
(PID.TID 0000.0001) %MON dynstat_salt_mean            =   3.4498097082343E+01
(PID.TID 0000.0001) %MON dynstat_salt_sd              =   2.7015553037012E-01
(PID.TID 0000.0001) %MON dynstat_salt_del2            =   4.4396809194942E-07
(PID.TID 0000.0001) %MON advcfl_uvel_max              =   3.5616606563007E-04
(PID.TID 0000.0001) %MON advcfl_vvel_max              =   3.2833460679802E-04
(PID.TID 0000.0001) %MON advcfl_wvel_max              =   1.0834608221936E-03
(PID.TID 0000.0001) %MON advcfl_W_hf_max              =   1.0834608221936E-03
(PID.TID 0000.0001) %MON pe_b_mean                    =  -6.8289020509119E-01
(PID.TID 0000.0001) %MON ke_max                       =   5.8656227250509E-06
(PID.TID 0000.0001) %MON ke_mean                      =   7.8699415108164E-09
(PID.TID 0000.0001) %MON ke_vol                       =   4.6182876733519E+12
(PID.TID 0000.0001) // =======================================================
(PID.TID 0000.0001) // End MONITOR dynamic field statistics
(PID.TID 0000.0001) // =======================================================
(PID.TID 0000.0001) // =======================================================
(PID.TID 0000.0001) // Begin OBCS MONITOR field statistics
(PID.TID 0000.0001) // =======================================================
(PID.TID 0000.0001) %MON obc_N_vVel_max               =   1.3726232587878E-07
(PID.TID 0000.0001) %MON obc_N_vVel_min               =   1.3726232587878E-07
(PID.TID 0000.0001) %MON obc_N_vVel_mean              =   1.3726232587878E-07
(PID.TID 0000.0001) %MON obc_N_vVel_sd                =  -1.5777218104420E-28
(PID.TID 0000.0001) %MON obc_N_vVel_Int               =   9.0593135079993E+00
(PID.TID 0000.0001) // =======================================================
(PID.TID 0000.0001) // End OBCS MONITOR field statistics
(PID.TID 0000.0001) // =======================================================
 cg2d: Sum(rhs),rhsMax =   3.01235330713836E+00  4.53052833435159E+02
(PID.TID 0000.0001)      cg2d_init_res =   2.34528601711249E-06
(PID.TID 0000.0001)      cg2d_iters(min,last) =      -1      65
(PID.TID 0000.0001)      cg2d_last_res =   9.91049129567980E-12
(PID.TID 0000.0001) // =======================================================
(PID.TID 0000.0001) // Begin MONITOR dynamic field statistics
(PID.TID 0000.0001) // =======================================================
(PID.TID 0000.0001) %MON time_tsnumber                =                   226
(PID.TID 0000.0001) %MON time_secondsf                =   2.2600000000000E+04
(PID.TID 0000.0001) %MON dynstat_eta_max              =   5.7961273634200E+00
(PID.TID 0000.0001) %MON dynstat_eta_min              =  -1.4177605513449E+01
(PID.TID 0000.0001) %MON dynstat_eta_mean             =  -2.5273244464941E+00
(PID.TID 0000.0001) %MON dynstat_eta_sd               =   4.9420587559696E+00
(PID.TID 0000.0001) %MON dynstat_eta_del2             =   1.9058058856761E-01
(PID.TID 0000.0001) %MON dynstat_uvel_max             =   2.3726164292519E-03
(PID.TID 0000.0001) %MON dynstat_uvel_min             =  -3.5653039702179E-03
(PID.TID 0000.0001) %MON dynstat_uvel_mean            =  -1.4398701799153E-09
(PID.TID 0000.0001) %MON dynstat_uvel_sd              =   8.0437204954919E-05
(PID.TID 0000.0001) %MON dynstat_uvel_del2            =   3.7175288552495E-07
(PID.TID 0000.0001) %MON dynstat_vvel_max             =   3.2860937516643E-03
(PID.TID 0000.0001) %MON dynstat_vvel_min             =  -1.9994563435546E-03
(PID.TID 0000.0001) %MON dynstat_vvel_mean            =   2.3581784028484E-07
(PID.TID 0000.0001) %MON dynstat_vvel_sd              =   9.7139798992675E-05
(PID.TID 0000.0001) %MON dynstat_vvel_del2            =   4.2242221921562E-07
(PID.TID 0000.0001) %MON dynstat_wvel_max             =   2.1647992580926E-04
(PID.TID 0000.0001) %MON dynstat_wvel_min             =  -1.1829136166667E-04
(PID.TID 0000.0001) %MON dynstat_wvel_mean            =   4.0860981148356E-10
(PID.TID 0000.0001) %MON dynstat_wvel_sd              =   2.1882566338663E-05
(PID.TID 0000.0001) %MON dynstat_wvel_del2            =   1.1362336635668E-07
(PID.TID 0000.0001) %MON dynstat_theta_max            =   1.2000000000000E+00
(PID.TID 0000.0001) %MON dynstat_theta_min            =  -1.0000000000000E+00
(PID.TID 0000.0001) %MON dynstat_theta_mean           =   5.6545907981457E-01
(PID.TID 0000.0001) %MON dynstat_theta_sd             =   8.4905887856820E-01
(PID.TID 0000.0001) %MON dynstat_theta_del2           =   1.4054410109513E-06
(PID.TID 0000.0001) %MON dynstat_salt_max             =   3.4700000000000E+01
(PID.TID 0000.0001) %MON dynstat_salt_min             =   3.4000000000000E+01
(PID.TID 0000.0001) %MON dynstat_salt_mean            =   3.4498097002091E+01
(PID.TID 0000.0001) %MON dynstat_salt_sd              =   2.7015551827880E-01
(PID.TID 0000.0001) %MON dynstat_salt_del2            =   4.4219300426145E-07
(PID.TID 0000.0001) %MON advcfl_uvel_max              =   3.5653039702179E-04
(PID.TID 0000.0001) %MON advcfl_vvel_max              =   3.2860937516643E-04
(PID.TID 0000.0001) %MON advcfl_wvel_max              =   1.0823996290463E-03
(PID.TID 0000.0001) %MON advcfl_W_hf_max              =   1.0823996290463E-03
(PID.TID 0000.0001) %MON pe_b_mean                    =  -6.8288977668628E-01
(PID.TID 0000.0001) %MON ke_max                       =   5.8648393822113E-06
(PID.TID 0000.0001) %MON ke_mean                      =   7.8922007574820E-09
(PID.TID 0000.0001) %MON ke_vol                       =   4.6182876831911E+12
(PID.TID 0000.0001) // =======================================================
(PID.TID 0000.0001) // End MONITOR dynamic field statistics
(PID.TID 0000.0001) // =======================================================
(PID.TID 0000.0001) // =======================================================
(PID.TID 0000.0001) // Begin OBCS MONITOR field statistics
(PID.TID 0000.0001) // =======================================================
(PID.TID 0000.0001) %MON obc_N_vVel_max               =   1.7403908832156E-07
(PID.TID 0000.0001) %MON obc_N_vVel_min               =   1.7403908832156E-07
(PID.TID 0000.0001) %MON obc_N_vVel_mean              =   1.7403908832156E-07
(PID.TID 0000.0001) %MON obc_N_vVel_sd                =   3.1376717637698E-14
(PID.TID 0000.0001) %MON obc_N_vVel_Int               =   1.1486579829223E+01
(PID.TID 0000.0001) // =======================================================
(PID.TID 0000.0001) // End OBCS MONITOR field statistics
(PID.TID 0000.0001) // =======================================================
 cg2d: Sum(rhs),rhsMax =   3.01235149533537E+00  4.53052821454402E+02
(PID.TID 0000.0001)      cg2d_init_res =   2.34663780858931E-06
(PID.TID 0000.0001)      cg2d_iters(min,last) =      -1      65
(PID.TID 0000.0001)      cg2d_last_res =   9.81674942220230E-12
(PID.TID 0000.0001) // =======================================================
(PID.TID 0000.0001) // Begin MONITOR dynamic field statistics
(PID.TID 0000.0001) // =======================================================
(PID.TID 0000.0001) %MON time_tsnumber                =                   227
(PID.TID 0000.0001) %MON time_secondsf                =   2.2700000000000E+04
(PID.TID 0000.0001) %MON dynstat_eta_max              =   5.7961294643355E+00
(PID.TID 0000.0001) %MON dynstat_eta_min              =  -1.4177600573024E+01
(PID.TID 0000.0001) %MON dynstat_eta_mean             =  -2.5273228595816E+00
(PID.TID 0000.0001) %MON dynstat_eta_sd               =   4.9420582503524E+00
(PID.TID 0000.0001) %MON dynstat_eta_del2             =   1.9058058852570E-01
(PID.TID 0000.0001) %MON dynstat_uvel_max             =   2.3659436738157E-03
(PID.TID 0000.0001) %MON dynstat_uvel_min             =  -3.5688353113774E-03
(PID.TID 0000.0001) %MON dynstat_uvel_mean            =  -8.8420022283771E-10
(PID.TID 0000.0001) %MON dynstat_uvel_sd              =   8.0613990556046E-05
(PID.TID 0000.0001) %MON dynstat_uvel_del2            =   3.7090404215454E-07
(PID.TID 0000.0001) %MON dynstat_vvel_max             =   3.2887422283956E-03
(PID.TID 0000.0001) %MON dynstat_vvel_min             =  -1.9907288830581E-03
(PID.TID 0000.0001) %MON dynstat_vvel_mean            =   2.5308572511485E-07
(PID.TID 0000.0001) %MON dynstat_vvel_sd              =   9.7229280475451E-05
(PID.TID 0000.0001) %MON dynstat_vvel_del2            =   4.2170290959322E-07
(PID.TID 0000.0001) %MON dynstat_wvel_max             =   2.1626020889205E-04
(PID.TID 0000.0001) %MON dynstat_wvel_min             =  -1.1697653991641E-04
(PID.TID 0000.0001) %MON dynstat_wvel_mean            =   3.1119029189686E-10
(PID.TID 0000.0001) %MON dynstat_wvel_sd              =   2.1865130286567E-05
(PID.TID 0000.0001) %MON dynstat_wvel_del2            =   1.1372648622848E-07
(PID.TID 0000.0001) %MON dynstat_theta_max            =   1.2000000000000E+00
(PID.TID 0000.0001) %MON dynstat_theta_min            =  -1.0000000000000E+00
(PID.TID 0000.0001) %MON dynstat_theta_mean           =   5.6545887747223E-01
(PID.TID 0000.0001) %MON dynstat_theta_sd             =   8.4905883539127E-01
(PID.TID 0000.0001) %MON dynstat_theta_del2           =   1.3994791348644E-06
(PID.TID 0000.0001) %MON dynstat_salt_max             =   3.4700000000000E+01
(PID.TID 0000.0001) %MON dynstat_salt_min             =   3.4000000000000E+01
(PID.TID 0000.0001) %MON dynstat_salt_mean            =   3.4498096921843E+01
(PID.TID 0000.0001) %MON dynstat_salt_sd              =   2.7015550620575E-01
(PID.TID 0000.0001) %MON dynstat_salt_del2            =   4.4043016289259E-07
(PID.TID 0000.0001) %MON advcfl_uvel_max              =   3.5688353113774E-04
(PID.TID 0000.0001) %MON advcfl_vvel_max              =   3.2887422283956E-04
(PID.TID 0000.0001) %MON advcfl_wvel_max              =   1.0813010444602E-03
(PID.TID 0000.0001) %MON advcfl_W_hf_max              =   1.0813010444602E-03
(PID.TID 0000.0001) %MON pe_b_mean                    =  -6.8288935137533E-01
(PID.TID 0000.0001) %MON ke_max                       =   5.8637218651995E-06
(PID.TID 0000.0001) %MON ke_mean                      =   7.9148690368107E-09
(PID.TID 0000.0001) %MON ke_vol                       =   4.6182876927878E+12
(PID.TID 0000.0001) // =======================================================
(PID.TID 0000.0001) // End MONITOR dynamic field statistics
(PID.TID 0000.0001) // =======================================================
(PID.TID 0000.0001) // =======================================================
(PID.TID 0000.0001) // Begin OBCS MONITOR field statistics
(PID.TID 0000.0001) // =======================================================
(PID.TID 0000.0001) %MON obc_N_vVel_max               =   1.9991841137486E-07
(PID.TID 0000.0001) %MON obc_N_vVel_min               =   1.9991841137486E-07
(PID.TID 0000.0001) %MON obc_N_vVel_mean              =   1.9991841137486E-07
(PID.TID 0000.0001) %MON obc_N_vVel_sd                =  -1.7859810894204E-27
(PID.TID 0000.0001) %MON obc_N_vVel_Int               =   1.3194615150741E+01
(PID.TID 0000.0001) // =======================================================
(PID.TID 0000.0001) // End OBCS MONITOR field statistics
(PID.TID 0000.0001) // =======================================================
 cg2d: Sum(rhs),rhsMax =   3.01234970040773E+00  4.53052809942490E+02
(PID.TID 0000.0001)      cg2d_init_res =   2.34840321143543E-06
(PID.TID 0000.0001)      cg2d_iters(min,last) =      -1      65
(PID.TID 0000.0001)      cg2d_last_res =   9.72348671656291E-12
(PID.TID 0000.0001) // =======================================================
(PID.TID 0000.0001) // Begin MONITOR dynamic field statistics
(PID.TID 0000.0001) // =======================================================
(PID.TID 0000.0001) %MON time_tsnumber                =                   228
(PID.TID 0000.0001) %MON time_secondsf                =   2.2800000000000E+04
(PID.TID 0000.0001) %MON dynstat_eta_max              =   5.7961315454718E+00
(PID.TID 0000.0001) %MON dynstat_eta_min              =  -1.4177595631440E+01
(PID.TID 0000.0001) %MON dynstat_eta_mean             =  -2.5273212894429E+00
(PID.TID 0000.0001) %MON dynstat_eta_sd               =   4.9420577407306E+00
(PID.TID 0000.0001) %MON dynstat_eta_del2             =   1.9058058849358E-01
(PID.TID 0000.0001) %MON dynstat_uvel_max             =   2.3591442481212E-03
(PID.TID 0000.0001) %MON dynstat_uvel_min             =  -3.5722554234694E-03
(PID.TID 0000.0001) %MON dynstat_uvel_mean            =  -3.5296255400987E-10
(PID.TID 0000.0001) %MON dynstat_uvel_sd              =   8.0792791991212E-05
(PID.TID 0000.0001) %MON dynstat_uvel_del2            =   3.7005464646913E-07
(PID.TID 0000.0001) %MON dynstat_vvel_max             =   3.2912925402808E-03
(PID.TID 0000.0001) %MON dynstat_vvel_min             =  -1.9819066245486E-03
(PID.TID 0000.0001) %MON dynstat_vvel_mean            =   2.5899302914361E-07
(PID.TID 0000.0001) %MON dynstat_vvel_sd              =   9.7318831200726E-05
(PID.TID 0000.0001) %MON dynstat_vvel_del2            =   4.2096785436733E-07
(PID.TID 0000.0001) %MON dynstat_wvel_max             =   2.1603308739639E-04
(PID.TID 0000.0001) %MON dynstat_wvel_min             =  -1.1297644196124E-04
(PID.TID 0000.0001) %MON dynstat_wvel_mean            =   2.1660916534337E-10
(PID.TID 0000.0001) %MON dynstat_wvel_sd              =   2.1847021255860E-05
(PID.TID 0000.0001) %MON dynstat_wvel_del2            =   1.1380500213820E-07
(PID.TID 0000.0001) %MON dynstat_theta_max            =   1.2000000000000E+00
(PID.TID 0000.0001) %MON dynstat_theta_min            =  -1.0000000000000E+00
(PID.TID 0000.0001) %MON dynstat_theta_mean           =   5.6545867513453E-01
(PID.TID 0000.0001) %MON dynstat_theta_sd             =   8.4905879227627E-01
(PID.TID 0000.0001) %MON dynstat_theta_del2           =   1.3935840243172E-06
(PID.TID 0000.0001) %MON dynstat_salt_max             =   3.4700000000000E+01
(PID.TID 0000.0001) %MON dynstat_salt_min             =   3.4000000000000E+01
(PID.TID 0000.0001) %MON dynstat_salt_mean            =   3.4498096841595E+01
(PID.TID 0000.0001) %MON dynstat_salt_sd              =   2.7015549415097E-01
(PID.TID 0000.0001) %MON dynstat_salt_del2            =   4.3868898628811E-07
(PID.TID 0000.0001) %MON advcfl_uvel_max              =   3.5722554234694E-04
(PID.TID 0000.0001) %MON advcfl_vvel_max              =   3.2912925402808E-04
(PID.TID 0000.0001) %MON advcfl_wvel_max              =   1.0801654369820E-03
(PID.TID 0000.0001) %MON advcfl_W_hf_max              =   1.0801654369820E-03
(PID.TID 0000.0001) %MON pe_b_mean                    =  -6.8288892678072E-01
(PID.TID 0000.0001) %MON ke_max                       =   5.8622750275293E-06
(PID.TID 0000.0001) %MON ke_mean                      =   7.9377398319329E-09
(PID.TID 0000.0001) %MON ke_vol                       =   4.6182877022141E+12
(PID.TID 0000.0001) // =======================================================
(PID.TID 0000.0001) // End MONITOR dynamic field statistics
(PID.TID 0000.0001) // =======================================================
(PID.TID 0000.0001) // =======================================================
(PID.TID 0000.0001) // Begin OBCS MONITOR field statistics
(PID.TID 0000.0001) // =======================================================
(PID.TID 0000.0001) %MON obc_N_vVel_max               =   2.1505962307208E-07
(PID.TID 0000.0001) %MON obc_N_vVel_min               =   2.1505962307208E-07
(PID.TID 0000.0001) %MON obc_N_vVel_mean              =   2.1505962307208E-07
(PID.TID 0000.0001) %MON obc_N_vVel_sd                =   6.0552667054947E-14
(PID.TID 0000.0001) %MON obc_N_vVel_Int               =   1.4193935122757E+01
(PID.TID 0000.0001) // =======================================================
(PID.TID 0000.0001) // End OBCS MONITOR field statistics
(PID.TID 0000.0001) // =======================================================
 cg2d: Sum(rhs),rhsMax =   3.01234790858173E+00  4.53052798925329E+02
(PID.TID 0000.0001)      cg2d_init_res =   2.34938599519703E-06
(PID.TID 0000.0001)      cg2d_iters(min,last) =      -1      65
(PID.TID 0000.0001)      cg2d_last_res =   9.65951396932709E-12
(PID.TID 0000.0001) // =======================================================
(PID.TID 0000.0001) // Begin MONITOR dynamic field statistics
(PID.TID 0000.0001) // =======================================================
(PID.TID 0000.0001) %MON time_tsnumber                =                   229
(PID.TID 0000.0001) %MON time_secondsf                =   2.2900000000000E+04
(PID.TID 0000.0001) %MON dynstat_eta_max              =   5.7961336245531E+00
(PID.TID 0000.0001) %MON dynstat_eta_min              =  -1.4177590666646E+01
(PID.TID 0000.0001) %MON dynstat_eta_mean             =  -2.5273197246663E+00
(PID.TID 0000.0001) %MON dynstat_eta_sd               =   4.9420572240042E+00
(PID.TID 0000.0001) %MON dynstat_eta_del2             =   1.9058058847204E-01
(PID.TID 0000.0001) %MON dynstat_uvel_max             =   2.3522192375083E-03
(PID.TID 0000.0001) %MON dynstat_uvel_min             =  -3.5755650564617E-03
(PID.TID 0000.0001) %MON dynstat_uvel_mean            =   1.3911176178517E-10
(PID.TID 0000.0001) %MON dynstat_uvel_sd              =   8.0973621950521E-05
(PID.TID 0000.0001) %MON dynstat_uvel_del2            =   3.6920477973901E-07
(PID.TID 0000.0001) %MON dynstat_vvel_max             =   3.2937458643287E-03
(PID.TID 0000.0001) %MON dynstat_vvel_min             =  -1.9729903209278E-03
(PID.TID 0000.0001) %MON dynstat_vvel_mean            =   2.5434829258685E-07
(PID.TID 0000.0001) %MON dynstat_vvel_sd              =   9.7406405375500E-05
(PID.TID 0000.0001) %MON dynstat_vvel_del2            =   4.2018487943263E-07
(PID.TID 0000.0001) %MON dynstat_wvel_max             =   2.1579862934578E-04
(PID.TID 0000.0001) %MON dynstat_wvel_min             =  -1.0914766952671E-04
(PID.TID 0000.0001) %MON dynstat_wvel_mean            =   1.2755967511798E-10
(PID.TID 0000.0001) %MON dynstat_wvel_sd              =   2.1824124910759E-05
(PID.TID 0000.0001) %MON dynstat_wvel_del2            =   1.1380685141364E-07
(PID.TID 0000.0001) %MON dynstat_theta_max            =   1.2000000000000E+00
(PID.TID 0000.0001) %MON dynstat_theta_min            =  -1.0000000000000E+00
(PID.TID 0000.0001) %MON dynstat_theta_mean           =   5.6545847279717E-01
(PID.TID 0000.0001) %MON dynstat_theta_sd             =   8.4905874916817E-01
(PID.TID 0000.0001) %MON dynstat_theta_del2           =   1.3877816218167E-06
(PID.TID 0000.0001) %MON dynstat_salt_max             =   3.4700000000000E+01
(PID.TID 0000.0001) %MON dynstat_salt_min             =   3.4000000000000E+01
(PID.TID 0000.0001) %MON dynstat_salt_mean            =   3.4498096761347E+01
(PID.TID 0000.0001) %MON dynstat_salt_sd              =   2.7015548209728E-01
(PID.TID 0000.0001) %MON dynstat_salt_del2            =   4.3697785877424E-07
(PID.TID 0000.0001) %MON advcfl_uvel_max              =   3.5755650564617E-04
(PID.TID 0000.0001) %MON advcfl_vvel_max              =   3.2937458643287E-04
(PID.TID 0000.0001) %MON advcfl_wvel_max              =   1.0789931467289E-03
(PID.TID 0000.0001) %MON advcfl_W_hf_max              =   1.0789931467289E-03
(PID.TID 0000.0001) %MON pe_b_mean                    =  -6.8288850070983E-01
(PID.TID 0000.0001) %MON ke_max                       =   5.8605039354817E-06
(PID.TID 0000.0001) %MON ke_mean                      =   7.9606159686655E-09
(PID.TID 0000.0001) %MON ke_vol                       =   4.6182877115407E+12
(PID.TID 0000.0001) // =======================================================
(PID.TID 0000.0001) // End MONITOR dynamic field statistics
(PID.TID 0000.0001) // =======================================================
(PID.TID 0000.0001) // =======================================================
(PID.TID 0000.0001) // Begin OBCS MONITOR field statistics
(PID.TID 0000.0001) // =======================================================
(PID.TID 0000.0001) %MON obc_N_vVel_max               =   2.1992988344434E-07
(PID.TID 0000.0001) %MON obc_N_vVel_min               =   2.1992988344434E-07
(PID.TID 0000.0001) %MON obc_N_vVel_mean              =   2.1992988344434E-07
(PID.TID 0000.0001) %MON obc_N_vVel_sd                =  -6.0584517520974E-28
(PID.TID 0000.0001) %MON obc_N_vVel_Int               =   1.4515372307327E+01
(PID.TID 0000.0001) // =======================================================
(PID.TID 0000.0001) // End OBCS MONITOR field statistics
(PID.TID 0000.0001) // =======================================================
 cg2d: Sum(rhs),rhsMax =   3.01234610715046E+00  4.53052788417333E+02
(PID.TID 0000.0001)      cg2d_init_res =   2.34851619338311E-06
(PID.TID 0000.0001)      cg2d_iters(min,last) =      -1      65
(PID.TID 0000.0001)      cg2d_last_res =   9.66378662983121E-12
(PID.TID 0000.0001) // =======================================================
(PID.TID 0000.0001) // Begin MONITOR dynamic field statistics
(PID.TID 0000.0001) // =======================================================
(PID.TID 0000.0001) %MON time_tsnumber                =                   230
(PID.TID 0000.0001) %MON time_secondsf                =   2.3000000000000E+04
(PID.TID 0000.0001) %MON dynstat_eta_max              =   5.7961357176024E+00
(PID.TID 0000.0001) %MON dynstat_eta_min              =  -1.4177585659284E+01
(PID.TID 0000.0001) %MON dynstat_eta_mean             =  -2.5273181546715E+00
(PID.TID 0000.0001) %MON dynstat_eta_sd               =   4.9420566975641E+00
(PID.TID 0000.0001) %MON dynstat_eta_del2             =   1.9058058846132E-01
(PID.TID 0000.0001) %MON dynstat_uvel_max             =   2.3451697440002E-03
(PID.TID 0000.0001) %MON dynstat_uvel_min             =  -3.5787649592536E-03
(PID.TID 0000.0001) %MON dynstat_uvel_mean            =   5.7978474045641E-10
(PID.TID 0000.0001) %MON dynstat_uvel_sd              =   8.1156491009295E-05
(PID.TID 0000.0001) %MON dynstat_uvel_del2            =   3.6835452237221E-07
(PID.TID 0000.0001) %MON dynstat_vvel_max             =   3.2961034839403E-03
(PID.TID 0000.0001) %MON dynstat_vvel_min             =  -1.9639805510465E-03
(PID.TID 0000.0001) %MON dynstat_vvel_mean            =   2.4021843091428E-07
(PID.TID 0000.0001) %MON dynstat_vvel_sd              =   9.7490313565358E-05
(PID.TID 0000.0001) %MON dynstat_vvel_del2            =   4.1932882716730E-07
(PID.TID 0000.0001) %MON dynstat_wvel_max             =   2.1555689810807E-04
(PID.TID 0000.0001) %MON dynstat_wvel_min             =  -1.1411420885980E-04
(PID.TID 0000.0001) %MON dynstat_wvel_mean            =   4.6317314095442E-11
(PID.TID 0000.0001) %MON dynstat_wvel_sd              =   2.1793087061609E-05
(PID.TID 0000.0001) %MON dynstat_wvel_del2            =   1.1369153188315E-07
(PID.TID 0000.0001) %MON dynstat_theta_max            =   1.2000000000000E+00
(PID.TID 0000.0001) %MON dynstat_theta_min            =  -1.0000000000000E+00
(PID.TID 0000.0001) %MON dynstat_theta_mean           =   5.6545827045604E-01
(PID.TID 0000.0001) %MON dynstat_theta_sd             =   8.4905870604789E-01
(PID.TID 0000.0001) %MON dynstat_theta_del2           =   1.3820906816347E-06
(PID.TID 0000.0001) %MON dynstat_salt_max             =   3.4700000000000E+01
(PID.TID 0000.0001) %MON dynstat_salt_min             =   3.4000000000000E+01
(PID.TID 0000.0001) %MON dynstat_salt_mean            =   3.4498096681098E+01
(PID.TID 0000.0001) %MON dynstat_salt_sd              =   2.7015547003823E-01
(PID.TID 0000.0001) %MON dynstat_salt_del2            =   4.3530280443306E-07
(PID.TID 0000.0001) %MON advcfl_uvel_max              =   3.5787649592536E-04
(PID.TID 0000.0001) %MON advcfl_vvel_max              =   3.2961034839403E-04
(PID.TID 0000.0001) %MON advcfl_wvel_max              =   1.0777844905403E-03
(PID.TID 0000.0001) %MON advcfl_W_hf_max              =   1.0777844905403E-03
(PID.TID 0000.0001) %MON pe_b_mean                    =  -6.8288807120727E-01
(PID.TID 0000.0001) %MON ke_max                       =   5.8584138337769E-06
(PID.TID 0000.0001) %MON ke_mean                      =   7.9833345530041E-09
(PID.TID 0000.0001) %MON ke_vol                       =   4.6182877208355E+12
(PID.TID 0000.0001) // =======================================================
(PID.TID 0000.0001) // End MONITOR dynamic field statistics
(PID.TID 0000.0001) // =======================================================
(PID.TID 0000.0001) // =======================================================
(PID.TID 0000.0001) // Begin OBCS MONITOR field statistics
(PID.TID 0000.0001) // =======================================================
(PID.TID 0000.0001) %MON obc_N_vVel_max               =   2.1527720804348E-07
(PID.TID 0000.0001) %MON obc_N_vVel_min               =   2.1527720804347E-07
(PID.TID 0000.0001) %MON obc_N_vVel_mean              =   2.1527720804348E-07
(PID.TID 0000.0001) %MON obc_N_vVel_sd                =  -1.6786960063103E-27
(PID.TID 0000.0001) %MON obc_N_vVel_Int               =   1.4208295730869E+01
(PID.TID 0000.0001) // =======================================================
(PID.TID 0000.0001) // End OBCS MONITOR field statistics
(PID.TID 0000.0001) // =======================================================
 cg2d: Sum(rhs),rhsMax =   3.01234428477676E+00  4.53052778421581E+02
(PID.TID 0000.0001)      cg2d_init_res =   2.34499641743981E-06
(PID.TID 0000.0001)      cg2d_iters(min,last) =      -1      65
(PID.TID 0000.0001)      cg2d_last_res =   9.75957414610916E-12
(PID.TID 0000.0001) // =======================================================
(PID.TID 0000.0001) // Begin MONITOR dynamic field statistics
(PID.TID 0000.0001) // =======================================================
(PID.TID 0000.0001) %MON time_tsnumber                =                   231
(PID.TID 0000.0001) %MON time_secondsf                =   2.3100000000000E+04
(PID.TID 0000.0001) %MON dynstat_eta_max              =   5.7961378386204E+00
(PID.TID 0000.0001) %MON dynstat_eta_min              =  -1.4177580593110E+01
(PID.TID 0000.0001) %MON dynstat_eta_mean             =  -2.5273165699639E+00
(PID.TID 0000.0001) %MON dynstat_eta_sd               =   4.9420561593326E+00
(PID.TID 0000.0001) %MON dynstat_eta_del2             =   1.9058058846130E-01
(PID.TID 0000.0001) %MON dynstat_uvel_max             =   2.3379968835844E-03
(PID.TID 0000.0001) %MON dynstat_uvel_min             =  -3.5818558764584E-03
(PID.TID 0000.0001) %MON dynstat_uvel_mean            =   9.5951864315832E-10
(PID.TID 0000.0001) %MON dynstat_uvel_sd              =   8.1341407866714E-05
(PID.TID 0000.0001) %MON dynstat_uvel_del2            =   3.6750395665321E-07
(PID.TID 0000.0001) %MON dynstat_vvel_max             =   3.2983667602995E-03
(PID.TID 0000.0001) %MON dynstat_vvel_min             =  -1.9548777653036E-03
(PID.TID 0000.0001) %MON dynstat_vvel_mean            =   2.1787327834807E-07
(PID.TID 0000.0001) %MON dynstat_vvel_sd              =   9.7569424001242E-05
(PID.TID 0000.0001) %MON dynstat_vvel_del2            =   4.1838454886550E-07
(PID.TID 0000.0001) %MON dynstat_wvel_max             =   2.1530795359519E-04
(PID.TID 0000.0001) %MON dynstat_wvel_min             =  -1.1834918217790E-04
(PID.TID 0000.0001) %MON dynstat_wvel_mean            =  -2.5272867228428E-11
(PID.TID 0000.0001) %MON dynstat_wvel_sd              =   2.1751715664689E-05
(PID.TID 0000.0001) %MON dynstat_wvel_del2            =   1.1343467071507E-07
(PID.TID 0000.0001) %MON dynstat_theta_max            =   1.2000000000000E+00
(PID.TID 0000.0001) %MON dynstat_theta_min            =  -1.0000000000000E+00
(PID.TID 0000.0001) %MON dynstat_theta_mean           =   5.6545806810720E-01
(PID.TID 0000.0001) %MON dynstat_theta_sd             =   8.4905866292927E-01
(PID.TID 0000.0001) %MON dynstat_theta_del2           =   1.3765215494153E-06
(PID.TID 0000.0001) %MON dynstat_salt_max             =   3.4700000000000E+01
(PID.TID 0000.0001) %MON dynstat_salt_min             =   3.4000000000000E+01
(PID.TID 0000.0001) %MON dynstat_salt_mean            =   3.4498096600845E+01
(PID.TID 0000.0001) %MON dynstat_salt_sd              =   2.7015545797838E-01
(PID.TID 0000.0001) %MON dynstat_salt_del2            =   4.3366685131925E-07
(PID.TID 0000.0001) %MON advcfl_uvel_max              =   3.5818558764584E-04
(PID.TID 0000.0001) %MON advcfl_vvel_max              =   3.2983667602995E-04
(PID.TID 0000.0001) %MON advcfl_wvel_max              =   1.0765397679759E-03
(PID.TID 0000.0001) %MON advcfl_W_hf_max              =   1.0765397679759E-03
(PID.TID 0000.0001) %MON pe_b_mean                    =  -6.8288763659490E-01
(PID.TID 0000.0001) %MON ke_max                       =   5.8560101016456E-06
(PID.TID 0000.0001) %MON ke_mean                      =   8.0057867064395E-09
(PID.TID 0000.0001) %MON ke_vol                       =   4.6182877301612E+12
(PID.TID 0000.0001) // =======================================================
(PID.TID 0000.0001) // End MONITOR dynamic field statistics
(PID.TID 0000.0001) // =======================================================
(PID.TID 0000.0001) // =======================================================
(PID.TID 0000.0001) // Begin OBCS MONITOR field statistics
(PID.TID 0000.0001) // =======================================================
(PID.TID 0000.0001) %MON obc_N_vVel_max               =   2.0208021311228E-07
(PID.TID 0000.0001) %MON obc_N_vVel_min               =   2.0208021311227E-07
(PID.TID 0000.0001) %MON obc_N_vVel_mean              =   2.0208021311228E-07
(PID.TID 0000.0001) %MON obc_N_vVel_sd                =  -1.5524782614750E-27
(PID.TID 0000.0001) %MON obc_N_vVel_Int               =   1.3337294065410E+01
(PID.TID 0000.0001) // =======================================================
(PID.TID 0000.0001) // End OBCS MONITOR field statistics
(PID.TID 0000.0001) // =======================================================
 cg2d: Sum(rhs),rhsMax =   3.01234243172965E+00  4.53052768930535E+02
(PID.TID 0000.0001)      cg2d_init_res =   2.33839404319389E-06
(PID.TID 0000.0001)      cg2d_iters(min,last) =      -1      65
(PID.TID 0000.0001)      cg2d_last_res =   9.93337682461713E-12
(PID.TID 0000.0001) // =======================================================
(PID.TID 0000.0001) // Begin MONITOR dynamic field statistics
(PID.TID 0000.0001) // =======================================================
(PID.TID 0000.0001) %MON time_tsnumber                =                   232
(PID.TID 0000.0001) %MON time_secondsf                =   2.3200000000000E+04
(PID.TID 0000.0001) %MON dynstat_eta_max              =   5.7961399996167E+00
(PID.TID 0000.0001) %MON dynstat_eta_min              =  -1.4177575455217E+01
(PID.TID 0000.0001) %MON dynstat_eta_mean             =  -2.5273149623371E+00
(PID.TID 0000.0001) %MON dynstat_eta_sd               =   4.9420556077809E+00
(PID.TID 0000.0001) %MON dynstat_eta_del2             =   1.9058058847154E-01
(PID.TID 0000.0001) %MON dynstat_uvel_max             =   2.3307017835439E-03
(PID.TID 0000.0001) %MON dynstat_uvel_min             =  -3.5848385480823E-03
(PID.TID 0000.0001) %MON dynstat_uvel_mean            =   1.2715028320282E-09
(PID.TID 0000.0001) %MON dynstat_uvel_sd              =   8.1528379660094E-05
(PID.TID 0000.0001) %MON dynstat_uvel_del2            =   3.6665316937408E-07
(PID.TID 0000.0001) %MON dynstat_vvel_max             =   3.3005371036587E-03
(PID.TID 0000.0001) %MON dynstat_vvel_min             =  -1.9456823300956E-03
(PID.TID 0000.0001) %MON dynstat_vvel_mean            =   1.8872831925904E-07
(PID.TID 0000.0001) %MON dynstat_vvel_sd              =   9.7643285525754E-05
(PID.TID 0000.0001) %MON dynstat_vvel_del2            =   4.1734854303861E-07
(PID.TID 0000.0001) %MON dynstat_wvel_max             =   2.1505185367491E-04
(PID.TID 0000.0001) %MON dynstat_wvel_min             =  -1.2201809951917E-04
(PID.TID 0000.0001) %MON dynstat_wvel_mean            =  -8.5822555203471E-11
(PID.TID 0000.0001) %MON dynstat_wvel_sd              =   2.1699221858870E-05
(PID.TID 0000.0001) %MON dynstat_wvel_del2            =   1.1303045239750E-07
(PID.TID 0000.0001) %MON dynstat_theta_max            =   1.2000000000000E+00
(PID.TID 0000.0001) %MON dynstat_theta_min            =  -1.0000000000000E+00
(PID.TID 0000.0001) %MON dynstat_theta_mean           =   5.6545786574716E-01
(PID.TID 0000.0001) %MON dynstat_theta_sd             =   8.4905861981145E-01
(PID.TID 0000.0001) %MON dynstat_theta_del2           =   1.3710732729817E-06
(PID.TID 0000.0001) %MON dynstat_salt_max             =   3.4700000000000E+01
(PID.TID 0000.0001) %MON dynstat_salt_min             =   3.4000000000000E+01
(PID.TID 0000.0001) %MON dynstat_salt_mean            =   3.4498096520589E+01
(PID.TID 0000.0001) %MON dynstat_salt_sd              =   2.7015544591755E-01
(PID.TID 0000.0001) %MON dynstat_salt_del2            =   4.3206973622577E-07
(PID.TID 0000.0001) %MON advcfl_uvel_max              =   3.5848385480823E-04
(PID.TID 0000.0001) %MON advcfl_vvel_max              =   3.3005371036587E-04
(PID.TID 0000.0001) %MON advcfl_wvel_max              =   1.0752592683746E-03
(PID.TID 0000.0001) %MON advcfl_W_hf_max              =   1.0752592683746E-03
(PID.TID 0000.0001) %MON pe_b_mean                    =  -6.8288719550042E-01
(PID.TID 0000.0001) %MON ke_max                       =   5.8532982087508E-06
(PID.TID 0000.0001) %MON ke_mean                      =   8.0279297376203E-09
(PID.TID 0000.0001) %MON ke_vol                       =   4.6182877395744E+12
(PID.TID 0000.0001) // =======================================================
(PID.TID 0000.0001) // End MONITOR dynamic field statistics
(PID.TID 0000.0001) // =======================================================
(PID.TID 0000.0001) // =======================================================
(PID.TID 0000.0001) // Begin OBCS MONITOR field statistics
(PID.TID 0000.0001) // =======================================================
(PID.TID 0000.0001) %MON obc_N_vVel_max               =   1.8149803705384E-07
(PID.TID 0000.0001) %MON obc_N_vVel_min               =   1.8149803705383E-07
(PID.TID 0000.0001) %MON obc_N_vVel_mean              =   1.8149803705384E-07
(PID.TID 0000.0001) %MON obc_N_vVel_sd                =  -2.4928004604984E-27
(PID.TID 0000.0001) %MON obc_N_vVel_Int               =   1.1978870445553E+01
(PID.TID 0000.0001) // =======================================================
(PID.TID 0000.0001) // End OBCS MONITOR field statistics
(PID.TID 0000.0001) // =======================================================
 cg2d: Sum(rhs),rhsMax =   3.01234054007723E+00  4.53052759922629E+02
(PID.TID 0000.0001)      cg2d_init_res =   2.32869578148083E-06
(PID.TID 0000.0001)      cg2d_iters(min,last) =      -1      66
(PID.TID 0000.0001)      cg2d_last_res =   8.12508124418387E-12
(PID.TID 0000.0001) // =======================================================
(PID.TID 0000.0001) // Begin MONITOR dynamic field statistics
(PID.TID 0000.0001) // =======================================================
(PID.TID 0000.0001) %MON time_tsnumber                =                   233
(PID.TID 0000.0001) %MON time_secondsf                =   2.3300000000000E+04
(PID.TID 0000.0001) %MON dynstat_eta_max              =   5.7961422085257E+00
(PID.TID 0000.0001) %MON dynstat_eta_min              =  -1.4177570236500E+01
(PID.TID 0000.0001) %MON dynstat_eta_mean             =  -2.5273133250163E+00
(PID.TID 0000.0001) %MON dynstat_eta_sd               =   4.9420550419275E+00
(PID.TID 0000.0001) %MON dynstat_eta_del2             =   1.9058058849168E-01
(PID.TID 0000.0001) %MON dynstat_uvel_max             =   2.3232855795126E-03
(PID.TID 0000.0001) %MON dynstat_uvel_min             =  -3.5877137130740E-03
(PID.TID 0000.0001) %MON dynstat_uvel_mean            =   1.5116886026723E-09
(PID.TID 0000.0001) %MON dynstat_uvel_sd              =   8.1717411964975E-05
(PID.TID 0000.0001) %MON dynstat_uvel_del2            =   3.6580225135752E-07
(PID.TID 0000.0001) %MON dynstat_vvel_max             =   3.3026159337517E-03
(PID.TID 0000.0001) %MON dynstat_vvel_min             =  -1.9363945772675E-03
(PID.TID 0000.0001) %MON dynstat_vvel_mean            =   1.5428724512086E-07
(PID.TID 0000.0001) %MON dynstat_vvel_sd              =   9.7712157352103E-05
(PID.TID 0000.0001) %MON dynstat_vvel_del2            =   4.1622906047049E-07
(PID.TID 0000.0001) %MON dynstat_wvel_max             =   2.1478864961288E-04
(PID.TID 0000.0001) %MON dynstat_wvel_min             =  -1.2353708268036E-04
(PID.TID 0000.0001) %MON dynstat_wvel_mean            =  -1.3439803222829E-10
(PID.TID 0000.0001) %MON dynstat_wvel_sd              =   2.1636275095836E-05
(PID.TID 0000.0001) %MON dynstat_wvel_del2            =   1.1249176725260E-07
(PID.TID 0000.0001) %MON dynstat_theta_max            =   1.2000000000000E+00
(PID.TID 0000.0001) %MON dynstat_theta_min            =  -1.0000000000000E+00
(PID.TID 0000.0001) %MON dynstat_theta_mean           =   5.6545766337297E-01
(PID.TID 0000.0001) %MON dynstat_theta_sd             =   8.4905857665048E-01
(PID.TID 0000.0001) %MON dynstat_theta_del2           =   1.3657335036246E-06
(PID.TID 0000.0001) %MON dynstat_salt_max             =   3.4700000000000E+01
(PID.TID 0000.0001) %MON dynstat_salt_min             =   3.4000000000000E+01
(PID.TID 0000.0001) %MON dynstat_salt_mean            =   3.4498096440327E+01
(PID.TID 0000.0001) %MON dynstat_salt_sd              =   2.7015543384169E-01
(PID.TID 0000.0001) %MON dynstat_salt_del2            =   4.3050770275767E-07
(PID.TID 0000.0001) %MON advcfl_uvel_max              =   3.5877137130740E-04
(PID.TID 0000.0001) %MON advcfl_vvel_max              =   3.3026159337517E-04
(PID.TID 0000.0001) %MON advcfl_wvel_max              =   1.0739432480644E-03
(PID.TID 0000.0001) %MON advcfl_W_hf_max              =   1.0739432480644E-03
(PID.TID 0000.0001) %MON pe_b_mean                    =  -6.8288674687369E-01
(PID.TID 0000.0001) %MON ke_max                       =   5.8502836549769E-06
(PID.TID 0000.0001) %MON ke_mean                      =   8.0497902097570E-09
(PID.TID 0000.0001) %MON ke_vol                       =   4.6182877491237E+12
(PID.TID 0000.0001) // =======================================================
(PID.TID 0000.0001) // End MONITOR dynamic field statistics
(PID.TID 0000.0001) // =======================================================
(PID.TID 0000.0001) // =======================================================
(PID.TID 0000.0001) // Begin OBCS MONITOR field statistics
(PID.TID 0000.0001) // =======================================================
(PID.TID 0000.0001) %MON obc_N_vVel_max               =   1.5481818809345E-07
(PID.TID 0000.0001) %MON obc_N_vVel_min               =   1.5481818809345E-07
(PID.TID 0000.0001) %MON obc_N_vVel_mean              =   1.5481818809345E-07
(PID.TID 0000.0001) %MON obc_N_vVel_sd                =   4.4088017311562E-14
(PID.TID 0000.0001) %MON obc_N_vVel_Int               =   1.0218000414167E+01
(PID.TID 0000.0001) // =======================================================
(PID.TID 0000.0001) // End OBCS MONITOR field statistics
(PID.TID 0000.0001) // =======================================================
 cg2d: Sum(rhs),rhsMax =   3.01233860375154E+00  4.53052751367965E+02
(PID.TID 0000.0001)      cg2d_init_res =   2.31627346154580E-06
(PID.TID 0000.0001)      cg2d_iters(min,last) =      -1      66
(PID.TID 0000.0001)      cg2d_last_res =   8.30271243273345E-12
(PID.TID 0000.0001) // =======================================================
(PID.TID 0000.0001) // Begin MONITOR dynamic field statistics
(PID.TID 0000.0001) // =======================================================
(PID.TID 0000.0001) %MON time_tsnumber                =                   234
(PID.TID 0000.0001) %MON time_secondsf                =   2.3400000000000E+04
(PID.TID 0000.0001) %MON dynstat_eta_max              =   5.7961444744206E+00
(PID.TID 0000.0001) %MON dynstat_eta_min              =  -1.4177564930247E+01
(PID.TID 0000.0001) %MON dynstat_eta_mean             =  -2.5273116527437E+00
(PID.TID 0000.0001) %MON dynstat_eta_sd               =   4.9420544613206E+00
(PID.TID 0000.0001) %MON dynstat_eta_del2             =   1.9058058851959E-01
(PID.TID 0000.0001) %MON dynstat_uvel_max             =   2.3157494117765E-03
(PID.TID 0000.0001) %MON dynstat_uvel_min             =  -3.5904820854966E-03
(PID.TID 0000.0001) %MON dynstat_uvel_mean            =   1.6786411776716E-09
(PID.TID 0000.0001) %MON dynstat_uvel_sd              =   8.1908509147776E-05
(PID.TID 0000.0001) %MON dynstat_uvel_del2            =   3.6495129977557E-07
(PID.TID 0000.0001) %MON dynstat_vvel_max             =   3.3046047061243E-03
(PID.TID 0000.0001) %MON dynstat_vvel_min             =  -1.9270148097146E-03
(PID.TID 0000.0001) %MON dynstat_vvel_mean            =   1.1608805416866E-07
(PID.TID 0000.0001) %MON dynstat_vvel_sd              =   9.7776945535283E-05
(PID.TID 0000.0001) %MON dynstat_vvel_del2            =   4.1504471245371E-07
(PID.TID 0000.0001) %MON dynstat_wvel_max             =   2.1451841281644E-04
(PID.TID 0000.0001) %MON dynstat_wvel_min             =  -1.2286072588941E-04
(PID.TID 0000.0001) %MON dynstat_wvel_mean            =  -1.7056006418421E-10
(PID.TID 0000.0001) %MON dynstat_wvel_sd              =   2.1564873567283E-05
(PID.TID 0000.0001) %MON dynstat_wvel_del2            =   1.1184816791342E-07
(PID.TID 0000.0001) %MON dynstat_theta_max            =   1.2000000000000E+00
(PID.TID 0000.0001) %MON dynstat_theta_min            =  -1.0000000000000E+00
(PID.TID 0000.0001) %MON dynstat_theta_mean           =   5.6545746098222E-01
(PID.TID 0000.0001) %MON dynstat_theta_sd             =   8.4905853344785E-01
(PID.TID 0000.0001) %MON dynstat_theta_del2           =   1.3604846331546E-06
(PID.TID 0000.0001) %MON dynstat_salt_max             =   3.4700000000000E+01
(PID.TID 0000.0001) %MON dynstat_salt_min             =   3.4000000000000E+01
(PID.TID 0000.0001) %MON dynstat_salt_mean            =   3.4498096360060E+01
(PID.TID 0000.0001) %MON dynstat_salt_sd              =   2.7015542175140E-01
(PID.TID 0000.0001) %MON dynstat_salt_del2            =   4.2897489183296E-07
(PID.TID 0000.0001) %MON advcfl_uvel_max              =   3.5904820854966E-04
(PID.TID 0000.0001) %MON advcfl_vvel_max              =   3.3046047061243E-04
(PID.TID 0000.0001) %MON advcfl_wvel_max              =   1.0725920640822E-03
(PID.TID 0000.0001) %MON advcfl_W_hf_max              =   1.0725920640822E-03
(PID.TID 0000.0001) %MON pe_b_mean                    =  -6.8288628999015E-01
(PID.TID 0000.0001) %MON ke_max                       =   5.8469720021477E-06
(PID.TID 0000.0001) %MON ke_mean                      =   8.0714578971083E-09
(PID.TID 0000.0001) %MON ke_vol                       =   4.6182877588494E+12
(PID.TID 0000.0001) // =======================================================
(PID.TID 0000.0001) // End MONITOR dynamic field statistics
(PID.TID 0000.0001) // =======================================================
(PID.TID 0000.0001) // =======================================================
(PID.TID 0000.0001) // Begin OBCS MONITOR field statistics
(PID.TID 0000.0001) // =======================================================
(PID.TID 0000.0001) %MON obc_N_vVel_max               =   1.2340614421384E-07
(PID.TID 0000.0001) %MON obc_N_vVel_min               =   1.2340614421384E-07
(PID.TID 0000.0001) %MON obc_N_vVel_mean              =   1.2340614421384E-07
(PID.TID 0000.0001) %MON obc_N_vVel_sd                =   1.4862067603866E-14
(PID.TID 0000.0001) %MON obc_N_vVel_Int               =   8.1448055181137E+00
(PID.TID 0000.0001) // =======================================================
(PID.TID 0000.0001) // End OBCS MONITOR field statistics
(PID.TID 0000.0001) // =======================================================
 cg2d: Sum(rhs),rhsMax =   3.01233661858212E+00  4.53052743227161E+02
(PID.TID 0000.0001)      cg2d_init_res =   2.30191304644470E-06
(PID.TID 0000.0001)      cg2d_iters(min,last) =      -1      66
(PID.TID 0000.0001)      cg2d_last_res =   8.55531127493855E-12
(PID.TID 0000.0001) // =======================================================
(PID.TID 0000.0001) // Begin MONITOR dynamic field statistics
(PID.TID 0000.0001) // =======================================================
(PID.TID 0000.0001) %MON time_tsnumber                =                   235
(PID.TID 0000.0001) %MON time_secondsf                =   2.3500000000000E+04
(PID.TID 0000.0001) %MON dynstat_eta_max              =   5.7961468004844E+00
(PID.TID 0000.0001) %MON dynstat_eta_min              =  -1.4177559534131E+01
(PID.TID 0000.0001) %MON dynstat_eta_mean             =  -2.5273099418005E+00
(PID.TID 0000.0001) %MON dynstat_eta_sd               =   4.9420538660137E+00
(PID.TID 0000.0001) %MON dynstat_eta_del2             =   1.9058058855483E-01
(PID.TID 0000.0001) %MON dynstat_uvel_max             =   2.3080944223839E-03
(PID.TID 0000.0001) %MON dynstat_uvel_min             =  -3.5931443946198E-03
(PID.TID 0000.0001) %MON dynstat_uvel_mean            =   1.7734041800054E-09
(PID.TID 0000.0001) %MON dynstat_uvel_sd              =   8.2101674491770E-05
(PID.TID 0000.0001) %MON dynstat_uvel_del2            =   3.6410041718932E-07
(PID.TID 0000.0001) %MON dynstat_vvel_max             =   3.3065047819951E-03
(PID.TID 0000.0001) %MON dynstat_vvel_min             =  -1.9175434071546E-03
(PID.TID 0000.0001) %MON dynstat_vvel_mean            =   7.5648905354908E-08
(PID.TID 0000.0001) %MON dynstat_vvel_sd              =   9.7839058495668E-05
(PID.TID 0000.0001) %MON dynstat_vvel_del2            =   4.1382180735466E-07
(PID.TID 0000.0001) %MON dynstat_wvel_max             =   2.1424118628223E-04
(PID.TID 0000.0001) %MON dynstat_wvel_min             =  -1.1998425359250E-04
(PID.TID 0000.0001) %MON dynstat_wvel_mean            =  -1.9422348462707E-10
(PID.TID 0000.0001) %MON dynstat_wvel_sd              =   2.1488050843022E-05
(PID.TID 0000.0001) %MON dynstat_wvel_del2            =   1.1114189346089E-07
(PID.TID 0000.0001) %MON dynstat_theta_max            =   1.2000000000000E+00
(PID.TID 0000.0001) %MON dynstat_theta_min            =  -1.0000000000000E+00
(PID.TID 0000.0001) %MON dynstat_theta_mean           =   5.6545725857292E-01
(PID.TID 0000.0001) %MON dynstat_theta_sd             =   8.4905849023689E-01
(PID.TID 0000.0001) %MON dynstat_theta_del2           =   1.3553027936315E-06
(PID.TID 0000.0001) %MON dynstat_salt_max             =   3.4700000000000E+01
(PID.TID 0000.0001) %MON dynstat_salt_min             =   3.4000000000000E+01
(PID.TID 0000.0001) %MON dynstat_salt_mean            =   3.4498096279787E+01
(PID.TID 0000.0001) %MON dynstat_salt_sd              =   2.7015540965709E-01
(PID.TID 0000.0001) %MON dynstat_salt_del2            =   4.2746378782079E-07
(PID.TID 0000.0001) %MON advcfl_uvel_max              =   3.5931443946198E-04
(PID.TID 0000.0001) %MON advcfl_vvel_max              =   3.3065047819951E-04
(PID.TID 0000.0001) %MON advcfl_wvel_max              =   1.0712059314112E-03
(PID.TID 0000.0001) %MON advcfl_W_hf_max              =   1.0712059314112E-03
(PID.TID 0000.0001) %MON pe_b_mean                    =  -6.8288582444512E-01
(PID.TID 0000.0001) %MON ke_max                       =   5.8433686914349E-06
(PID.TID 0000.0001) %MON ke_mean                      =   8.0930717651711E-09
(PID.TID 0000.0001) %MON ke_vol                       =   4.6182877687827E+12
(PID.TID 0000.0001) // =======================================================
(PID.TID 0000.0001) // End MONITOR dynamic field statistics
(PID.TID 0000.0001) // =======================================================
(PID.TID 0000.0001) // =======================================================
(PID.TID 0000.0001) // Begin OBCS MONITOR field statistics
(PID.TID 0000.0001) // =======================================================
(PID.TID 0000.0001) %MON obc_N_vVel_max               =   8.8648360865205E-08
(PID.TID 0000.0001) %MON obc_N_vVel_min               =   8.8648360865203E-08
(PID.TID 0000.0001) %MON obc_N_vVel_mean              =   8.8648360865203E-08
(PID.TID 0000.0001) %MON obc_N_vVel_sd                =   2.5985860287264E-14
(PID.TID 0000.0001) %MON obc_N_vVel_Int               =   5.8507918171034E+00
(PID.TID 0000.0001) // =======================================================
(PID.TID 0000.0001) // End OBCS MONITOR field statistics
(PID.TID 0000.0001) // =======================================================
 cg2d: Sum(rhs),rhsMax =   3.01233458226910E+00  4.53052735453032E+02
(PID.TID 0000.0001)      cg2d_init_res =   2.28662269100855E-06
(PID.TID 0000.0001)      cg2d_iters(min,last) =      -1      66
(PID.TID 0000.0001)      cg2d_last_res =   8.80658322015623E-12
(PID.TID 0000.0001) // =======================================================
(PID.TID 0000.0001) // Begin MONITOR dynamic field statistics
(PID.TID 0000.0001) // =======================================================
(PID.TID 0000.0001) %MON time_tsnumber                =                   236
(PID.TID 0000.0001) %MON time_secondsf                =   2.3600000000000E+04
(PID.TID 0000.0001) %MON dynstat_eta_max              =   5.7961491885587E+00
(PID.TID 0000.0001) %MON dynstat_eta_min              =  -1.4177554048554E+01
(PID.TID 0000.0001) %MON dynstat_eta_mean             =  -2.5273081899940E+00
(PID.TID 0000.0001) %MON dynstat_eta_sd               =   4.9420532565053E+00
(PID.TID 0000.0001) %MON dynstat_eta_del2             =   1.9058058859600E-01
(PID.TID 0000.0001) %MON dynstat_uvel_max             =   2.3003217526210E-03
(PID.TID 0000.0001) %MON dynstat_uvel_min             =  -3.5957013498253E-03
(PID.TID 0000.0001) %MON dynstat_uvel_mean            =   1.7992417327610E-09
(PID.TID 0000.0001) %MON dynstat_uvel_sd              =   8.2296910417621E-05
(PID.TID 0000.0001) %MON dynstat_uvel_del2            =   3.6324971275644E-07
(PID.TID 0000.0001) %MON dynstat_vvel_max             =   3.3083175066606E-03
(PID.TID 0000.0001) %MON dynstat_vvel_min             =  -1.9079807887437E-03
(PID.TID 0000.0001) %MON dynstat_vvel_mean            =   3.4423128270216E-08
(PID.TID 0000.0001) %MON dynstat_vvel_sd              =   9.7900203368539E-05
(PID.TID 0000.0001) %MON dynstat_vvel_del2            =   4.1259077617167E-07
(PID.TID 0000.0001) %MON dynstat_wvel_max             =   2.1395703059422E-04
(PID.TID 0000.0001) %MON dynstat_wvel_min             =  -1.1494422796174E-04
(PID.TID 0000.0001) %MON dynstat_wvel_mean            =  -2.0574902502602E-10
(PID.TID 0000.0001) %MON dynstat_wvel_sd              =   2.1409459159883E-05
(PID.TID 0000.0001) %MON dynstat_wvel_del2            =   1.1042236830135E-07
(PID.TID 0000.0001) %MON dynstat_theta_max            =   1.2000000000000E+00
(PID.TID 0000.0001) %MON dynstat_theta_min            =  -1.0000000000000E+00
(PID.TID 0000.0001) %MON dynstat_theta_mean           =   5.6545705614366E-01
(PID.TID 0000.0001) %MON dynstat_theta_sd             =   8.4905844704020E-01
(PID.TID 0000.0001) %MON dynstat_theta_del2           =   1.3501616027557E-06
(PID.TID 0000.0001) %MON dynstat_salt_max             =   3.4700000000000E+01
(PID.TID 0000.0001) %MON dynstat_salt_min             =   3.4000000000000E+01
(PID.TID 0000.0001) %MON dynstat_salt_mean            =   3.4498096199506E+01
(PID.TID 0000.0001) %MON dynstat_salt_sd              =   2.7015539756604E-01
(PID.TID 0000.0001) %MON dynstat_salt_del2            =   4.2596602979270E-07
(PID.TID 0000.0001) %MON advcfl_uvel_max              =   3.5957013498253E-04
(PID.TID 0000.0001) %MON advcfl_vvel_max              =   3.3083175066606E-04
(PID.TID 0000.0001) %MON advcfl_wvel_max              =   1.0697851529711E-03
(PID.TID 0000.0001) %MON advcfl_W_hf_max              =   1.0697851529711E-03
(PID.TID 0000.0001) %MON pe_b_mean                    =  -6.8288535013810E-01
(PID.TID 0000.0001) %MON ke_max                       =   5.8394791400480E-06
(PID.TID 0000.0001) %MON ke_mean                      =   8.1148001264956E-09
(PID.TID 0000.0001) %MON ke_vol                       =   4.6182877789457E+12
(PID.TID 0000.0001) // =======================================================
(PID.TID 0000.0001) // End MONITOR dynamic field statistics
(PID.TID 0000.0001) // =======================================================
(PID.TID 0000.0001) // =======================================================
(PID.TID 0000.0001) // Begin OBCS MONITOR field statistics
(PID.TID 0000.0001) // =======================================================
(PID.TID 0000.0001) %MON obc_N_vVel_max               =   5.1917870367565E-08
(PID.TID 0000.0001) %MON obc_N_vVel_min               =   5.1917870367564E-08
(PID.TID 0000.0001) %MON obc_N_vVel_mean              =   5.1917870367565E-08
(PID.TID 0000.0001) %MON obc_N_vVel_sd                =  -1.9839851766308E-28
(PID.TID 0000.0001) %MON obc_N_vVel_Int               =   3.4265794442593E+00
(PID.TID 0000.0001) // =======================================================
(PID.TID 0000.0001) // End OBCS MONITOR field statistics
(PID.TID 0000.0001) // =======================================================
 cg2d: Sum(rhs),rhsMax =   3.01233249428767E+00  4.53052727992106E+02
(PID.TID 0000.0001)      cg2d_init_res =   2.27152697352838E-06
(PID.TID 0000.0001)      cg2d_iters(min,last) =      -1      66
(PID.TID 0000.0001)      cg2d_last_res =   9.03625616835125E-12
(PID.TID 0000.0001) // =======================================================
(PID.TID 0000.0001) // Begin MONITOR dynamic field statistics
(PID.TID 0000.0001) // =======================================================
(PID.TID 0000.0001) %MON time_tsnumber                =                   237
(PID.TID 0000.0001) %MON time_secondsf                =   2.3700000000000E+04
(PID.TID 0000.0001) %MON dynstat_eta_max              =   5.7961516383465E+00
(PID.TID 0000.0001) %MON dynstat_eta_min              =  -1.4177548476794E+01
(PID.TID 0000.0001) %MON dynstat_eta_mean             =  -2.5273063965857E+00
(PID.TID 0000.0001) %MON dynstat_eta_sd               =   4.9420526336840E+00
(PID.TID 0000.0001) %MON dynstat_eta_del2             =   1.9058058864145E-01
(PID.TID 0000.0001) %MON dynstat_uvel_max             =   2.2924325416387E-03
(PID.TID 0000.0001) %MON dynstat_uvel_min             =  -3.5981536522316E-03
(PID.TID 0000.0001) %MON dynstat_uvel_mean            =   1.7613115534425E-09
(PID.TID 0000.0001) %MON dynstat_uvel_sd              =   8.2494218737702E-05
(PID.TID 0000.0001) %MON dynstat_uvel_del2            =   3.6239930287243E-07
(PID.TID 0000.0001) %MON dynstat_vvel_max             =   3.3100441450751E-03
(PID.TID 0000.0001) %MON dynstat_vvel_min             =  -1.8983274759989E-03
(PID.TID 0000.0001) %MON dynstat_vvel_mean            =  -6.2414401833243E-09
(PID.TID 0000.0001) %MON dynstat_vvel_sd              =   9.7962151334808E-05
(PID.TID 0000.0001) %MON dynstat_vvel_del2            =   4.1138215803415E-07
(PID.TID 0000.0001) %MON dynstat_wvel_max             =   2.1366600394975E-04
(PID.TID 0000.0001) %MON dynstat_wvel_min             =  -1.0918908738180E-04
(PID.TID 0000.0001) %MON dynstat_wvel_mean            =  -2.0584275882013E-10
(PID.TID 0000.0001) %MON dynstat_wvel_sd              =   2.1332879892446E-05
(PID.TID 0000.0001) %MON dynstat_wvel_del2            =   1.0973975947950E-07
(PID.TID 0000.0001) %MON dynstat_theta_max            =   1.2000000000000E+00
(PID.TID 0000.0001) %MON dynstat_theta_min            =  -1.0000000000000E+00
(PID.TID 0000.0001) %MON dynstat_theta_mean           =   5.6545685369334E-01
(PID.TID 0000.0001) %MON dynstat_theta_sd             =   8.4905840383887E-01
(PID.TID 0000.0001) %MON dynstat_theta_del2           =   1.3450351979838E-06
(PID.TID 0000.0001) %MON dynstat_salt_max             =   3.4700000000000E+01
(PID.TID 0000.0001) %MON dynstat_salt_min             =   3.4000000000000E+01
(PID.TID 0000.0001) %MON dynstat_salt_mean            =   3.4498096119219E+01
(PID.TID 0000.0001) %MON dynstat_salt_sd              =   2.7015538547217E-01
(PID.TID 0000.0001) %MON dynstat_salt_del2            =   4.2447336551176E-07
(PID.TID 0000.0001) %MON advcfl_uvel_max              =   3.5981536522316E-04
(PID.TID 0000.0001) %MON advcfl_vvel_max              =   3.3100441450751E-04
(PID.TID 0000.0001) %MON advcfl_wvel_max              =   1.0683300197488E-03
(PID.TID 0000.0001) %MON advcfl_W_hf_max              =   1.0683300197488E-03
(PID.TID 0000.0001) %MON pe_b_mean                    =  -6.8288486724758E-01
(PID.TID 0000.0001) %MON ke_max                       =   5.8353086530755E-06
(PID.TID 0000.0001) %MON ke_mean                      =   8.1368177275419E-09
(PID.TID 0000.0001) %MON ke_vol                       =   4.6182877893514E+12
(PID.TID 0000.0001) // =======================================================
(PID.TID 0000.0001) // End MONITOR dynamic field statistics
(PID.TID 0000.0001) // =======================================================
(PID.TID 0000.0001) // =======================================================
(PID.TID 0000.0001) // Begin OBCS MONITOR field statistics
(PID.TID 0000.0001) // =======================================================
(PID.TID 0000.0001) %MON obc_N_vVel_max               =   1.4525346589001E-08
(PID.TID 0000.0001) %MON obc_N_vVel_min               =   1.4525346589001E-08
(PID.TID 0000.0001) %MON obc_N_vVel_mean              =   1.4525346589001E-08
(PID.TID 0000.0001) %MON obc_N_vVel_sd                =   3.6248399209603E-15
(PID.TID 0000.0001) %MON obc_N_vVel_Int               =   9.5867287487404E-01
(PID.TID 0000.0001) // =======================================================
(PID.TID 0000.0001) // End OBCS MONITOR field statistics
(PID.TID 0000.0001) // =======================================================
 cg2d: Sum(rhs),rhsMax =   3.01233035575367E+00  4.53052720786103E+02
(PID.TID 0000.0001)      cg2d_init_res =   2.25777147369594E-06
(PID.TID 0000.0001)      cg2d_iters(min,last) =      -1      66
(PID.TID 0000.0001)      cg2d_last_res =   9.24968785800646E-12
(PID.TID 0000.0001) // =======================================================
(PID.TID 0000.0001) // Begin MONITOR dynamic field statistics
(PID.TID 0000.0001) // =======================================================
(PID.TID 0000.0001) %MON time_tsnumber                =                   238
(PID.TID 0000.0001) %MON time_secondsf                =   2.3800000000000E+04
(PID.TID 0000.0001) %MON dynstat_eta_max              =   5.7961541475496E+00
(PID.TID 0000.0001) %MON dynstat_eta_min              =  -1.4177542824643E+01
(PID.TID 0000.0001) %MON dynstat_eta_mean             =  -2.5273045621866E+00
(PID.TID 0000.0001) %MON dynstat_eta_sd               =   4.9420519987682E+00
(PID.TID 0000.0001) %MON dynstat_eta_del2             =   1.9058058868946E-01
(PID.TID 0000.0001) %MON dynstat_uvel_max             =   2.2844279221204E-03
(PID.TID 0000.0001) %MON dynstat_uvel_min             =  -3.6005019929897E-03
(PID.TID 0000.0001) %MON dynstat_uvel_mean            =   1.6663817214149E-09
(PID.TID 0000.0001) %MON dynstat_uvel_sd              =   8.2693600868698E-05
(PID.TID 0000.0001) %MON dynstat_uvel_del2            =   3.6154931088430E-07
(PID.TID 0000.0001) %MON dynstat_vvel_max             =   3.3116858766160E-03
(PID.TID 0000.0001) %MON dynstat_vvel_min             =  -1.8885841096132E-03
(PID.TID 0000.0001) %MON dynstat_vvel_mean            =  -4.5136351451961E-08
(PID.TID 0000.0001) %MON dynstat_vvel_sd              =   9.8026501513522E-05
(PID.TID 0000.0001) %MON dynstat_vvel_del2            =   4.1022265085755E-07
(PID.TID 0000.0001) %MON dynstat_wvel_max             =   2.1336816668910E-04
(PID.TID 0000.0001) %MON dynstat_wvel_min             =  -1.1269563629749E-04
(PID.TID 0000.0001) %MON dynstat_wvel_mean            =  -1.9550779315674E-10
(PID.TID 0000.0001) %MON dynstat_wvel_sd              =   2.1261722992541E-05
(PID.TID 0000.0001) %MON dynstat_wvel_del2            =   1.0913835429919E-07
(PID.TID 0000.0001) %MON dynstat_theta_max            =   1.2000000000000E+00
(PID.TID 0000.0001) %MON dynstat_theta_min            =  -1.0000000000000E+00
(PID.TID 0000.0001) %MON dynstat_theta_mean           =   5.6545665122165E-01
(PID.TID 0000.0001) %MON dynstat_theta_sd             =   8.4905836067159E-01
(PID.TID 0000.0001) %MON dynstat_theta_del2           =   1.3399033794562E-06
(PID.TID 0000.0001) %MON dynstat_salt_max             =   3.4700000000000E+01
(PID.TID 0000.0001) %MON dynstat_salt_min             =   3.4000000000000E+01
(PID.TID 0000.0001) %MON dynstat_salt_mean            =   3.4498096038924E+01
(PID.TID 0000.0001) %MON dynstat_salt_sd              =   2.7015537338791E-01
(PID.TID 0000.0001) %MON dynstat_salt_del2            =   4.2297939106950E-07
(PID.TID 0000.0001) %MON advcfl_uvel_max              =   3.6005019929897E-04
(PID.TID 0000.0001) %MON advcfl_vvel_max              =   3.3116858766160E-04
(PID.TID 0000.0001) %MON advcfl_wvel_max              =   1.0668408334455E-03
(PID.TID 0000.0001) %MON advcfl_W_hf_max              =   1.0668408334455E-03
(PID.TID 0000.0001) %MON pe_b_mean                    =  -6.8288437620152E-01
(PID.TID 0000.0001) %MON ke_max                       =   5.8308624103619E-06
(PID.TID 0000.0001) %MON ke_mean                      =   8.1592826615724E-09
(PID.TID 0000.0001) %MON ke_vol                       =   4.6182878000043E+12
(PID.TID 0000.0001) // =======================================================
(PID.TID 0000.0001) // End MONITOR dynamic field statistics
(PID.TID 0000.0001) // =======================================================
(PID.TID 0000.0001) // =======================================================
(PID.TID 0000.0001) // Begin OBCS MONITOR field statistics
(PID.TID 0000.0001) // =======================================================
(PID.TID 0000.0001) %MON obc_N_vVel_max               =  -2.2316431790168E-08
(PID.TID 0000.0001) %MON obc_N_vVel_min               =  -2.2316431790169E-08
(PID.TID 0000.0001) %MON obc_N_vVel_mean              =  -2.2316431790169E-08
(PID.TID 0000.0001) %MON obc_N_vVel_sd                =  -2.1792282506730E-29
(PID.TID 0000.0001) %MON obc_N_vVel_Int               =  -1.4728844981511E+00
(PID.TID 0000.0001) // =======================================================
(PID.TID 0000.0001) // End OBCS MONITOR field statistics
(PID.TID 0000.0001) // =======================================================
 cg2d: Sum(rhs),rhsMax =   3.01232816924038E+00  4.53052713773972E+02
(PID.TID 0000.0001)      cg2d_init_res =   2.24632552308748E-06
(PID.TID 0000.0001)      cg2d_iters(min,last) =      -1      66
(PID.TID 0000.0001)      cg2d_last_res =   9.45848098264930E-12
(PID.TID 0000.0001) // =======================================================
(PID.TID 0000.0001) // Begin MONITOR dynamic field statistics
(PID.TID 0000.0001) // =======================================================
(PID.TID 0000.0001) %MON time_tsnumber                =                   239
(PID.TID 0000.0001) %MON time_secondsf                =   2.3900000000000E+04
(PID.TID 0000.0001) %MON dynstat_eta_max              =   5.7961567121384E+00
(PID.TID 0000.0001) %MON dynstat_eta_min              =  -1.4177537099950E+01
(PID.TID 0000.0001) %MON dynstat_eta_mean             =  -2.5273026886151E+00
(PID.TID 0000.0001) %MON dynstat_eta_sd               =   4.9420513532368E+00
(PID.TID 0000.0001) %MON dynstat_eta_del2             =   1.9058058873823E-01
(PID.TID 0000.0001) %MON dynstat_uvel_max             =   2.2763090182956E-03
(PID.TID 0000.0001) %MON dynstat_uvel_min             =  -3.6027470539326E-03
(PID.TID 0000.0001) %MON dynstat_uvel_mean            =   1.5224558312857E-09
(PID.TID 0000.0001) %MON dynstat_uvel_sd              =   8.2895058051525E-05
(PID.TID 0000.0001) %MON dynstat_uvel_del2            =   3.6069986692493E-07
(PID.TID 0000.0001) %MON dynstat_vvel_max             =   3.3132437836469E-03
(PID.TID 0000.0001) %MON dynstat_vvel_min             =  -1.8787514622289E-03
(PID.TID 0000.0001) %MON dynstat_vvel_mean            =  -8.1218974923456E-08
(PID.TID 0000.0001) %MON dynstat_vvel_sd              =   9.8094475659050E-05
(PID.TID 0000.0001) %MON dynstat_vvel_del2            =   4.0913176153827E-07
(PID.TID 0000.0001) %MON dynstat_wvel_max             =   2.1306358180171E-04
(PID.TID 0000.0001) %MON dynstat_wvel_min             =  -1.1445434025596E-04
(PID.TID 0000.0001) %MON dynstat_wvel_mean            =  -1.7598658402563E-10
(PID.TID 0000.0001) %MON dynstat_wvel_sd              =   2.1198583076716E-05
(PID.TID 0000.0001) %MON dynstat_wvel_del2            =   1.0865067470378E-07
(PID.TID 0000.0001) %MON dynstat_theta_max            =   1.2000000000000E+00
(PID.TID 0000.0001) %MON dynstat_theta_min            =  -1.0000000000000E+00
(PID.TID 0000.0001) %MON dynstat_theta_mean           =   5.6545644872893E-01
(PID.TID 0000.0001) %MON dynstat_theta_sd             =   8.4905831755191E-01
(PID.TID 0000.0001) %MON dynstat_theta_del2           =   1.3347542831247E-06
(PID.TID 0000.0001) %MON dynstat_salt_max             =   3.4700000000000E+01
(PID.TID 0000.0001) %MON dynstat_salt_min             =   3.4000000000000E+01
(PID.TID 0000.0001) %MON dynstat_salt_mean            =   3.4498095958622E+01
(PID.TID 0000.0001) %MON dynstat_salt_sd              =   2.7015536131746E-01
(PID.TID 0000.0001) %MON dynstat_salt_del2            =   4.2148038089370E-07
(PID.TID 0000.0001) %MON advcfl_uvel_max              =   3.6027470539326E-04
(PID.TID 0000.0001) %MON advcfl_vvel_max              =   3.3132437836469E-04
(PID.TID 0000.0001) %MON advcfl_wvel_max              =   1.0653179090085E-03
(PID.TID 0000.0001) %MON advcfl_W_hf_max              =   1.0653179090085E-03
(PID.TID 0000.0001) %MON pe_b_mean                    =  -6.8288387764095E-01
(PID.TID 0000.0001) %MON ke_max                       =   5.8261454472041E-06
(PID.TID 0000.0001) %MON ke_mean                      =   8.1823162624836E-09
(PID.TID 0000.0001) %MON ke_vol                       =   4.6182878109006E+12
(PID.TID 0000.0001) // =======================================================
(PID.TID 0000.0001) // End MONITOR dynamic field statistics
(PID.TID 0000.0001) // =======================================================
(PID.TID 0000.0001) // =======================================================
(PID.TID 0000.0001) // Begin OBCS MONITOR field statistics
(PID.TID 0000.0001) // =======================================================
(PID.TID 0000.0001) %MON obc_N_vVel_max               =  -5.7522318878445E-08
(PID.TID 0000.0001) %MON obc_N_vVel_min               =  -5.7522318878446E-08
(PID.TID 0000.0001) %MON obc_N_vVel_mean              =  -5.7522318878445E-08
(PID.TID 0000.0001) %MON obc_N_vVel_sd                =  -1.8932661725304E-29
(PID.TID 0000.0001) %MON obc_N_vVel_Int               =  -3.7964730459774E+00
(PID.TID 0000.0001) // =======================================================
(PID.TID 0000.0001) // End OBCS MONITOR field statistics
(PID.TID 0000.0001) // =======================================================
 cg2d: Sum(rhs),rhsMax =   3.01232593856807E+00  4.53052706893286E+02
(PID.TID 0000.0001)      cg2d_init_res =   2.23785742615968E-06
(PID.TID 0000.0001)      cg2d_iters(min,last) =      -1      66
(PID.TID 0000.0001)      cg2d_last_res =   9.67589214340376E-12
(PID.TID 0000.0001) // =======================================================
(PID.TID 0000.0001) // Begin MONITOR dynamic field statistics
(PID.TID 0000.0001) // =======================================================
(PID.TID 0000.0001) %MON time_tsnumber                =                   240
(PID.TID 0000.0001) %MON time_secondsf                =   2.4000000000000E+04
(PID.TID 0000.0001) %MON dynstat_eta_max              =   5.7961593266356E+00
(PID.TID 0000.0001) %MON dynstat_eta_min              =  -1.4177531312170E+01
(PID.TID 0000.0001) %MON dynstat_eta_mean             =  -2.5273007787280E+00
(PID.TID 0000.0001) %MON dynstat_eta_sd               =   4.9420506987582E+00
(PID.TID 0000.0001) %MON dynstat_eta_del2             =   1.9058058878600E-01
(PID.TID 0000.0001) %MON dynstat_uvel_max             =   2.2680769444801E-03
(PID.TID 0000.0001) %MON dynstat_uvel_min             =  -3.6048895077185E-03
(PID.TID 0000.0001) %MON dynstat_uvel_mean            =   1.3384010943007E-09
(PID.TID 0000.0001) %MON dynstat_uvel_sd              =   8.3098591517771E-05
(PID.TID 0000.0001) %MON dynstat_uvel_del2            =   3.5985110712943E-07
(PID.TID 0000.0001) %MON dynstat_vvel_max             =   3.3147188435620E-03
(PID.TID 0000.0001) %MON dynstat_vvel_min             =  -1.8688304486982E-03
(PID.TID 0000.0001) %MON dynstat_vvel_mean            =  -1.1363111680625E-07
(PID.TID 0000.0001) %MON dynstat_vvel_sd              =   9.8166770247810E-05
(PID.TID 0000.0001) %MON dynstat_vvel_del2            =   4.0811949251962E-07
(PID.TID 0000.0001) %MON dynstat_wvel_max             =   2.1275231430518E-04
(PID.TID 0000.0001) %MON dynstat_wvel_min             =  -1.1357198914990E-04
(PID.TID 0000.0001) %MON dynstat_wvel_mean            =  -1.4870562063147E-10
(PID.TID 0000.0001) %MON dynstat_wvel_sd              =   2.1144913094622E-05
(PID.TID 0000.0001) %MON dynstat_wvel_del2            =   1.0829322246177E-07
(PID.TID 0000.0001) %MON dynstat_theta_max            =   1.2000000000000E+00
(PID.TID 0000.0001) %MON dynstat_theta_min            =  -1.0000000000000E+00
(PID.TID 0000.0001) %MON dynstat_theta_mean           =   5.6545624621594E-01
(PID.TID 0000.0001) %MON dynstat_theta_sd             =   8.4905827450628E-01
(PID.TID 0000.0001) %MON dynstat_theta_del2           =   1.3295837850837E-06
(PID.TID 0000.0001) %MON dynstat_salt_max             =   3.4700000000000E+01
(PID.TID 0000.0001) %MON dynstat_salt_min             =   3.4000000000000E+01
(PID.TID 0000.0001) %MON dynstat_salt_mean            =   3.4498095878313E+01
(PID.TID 0000.0001) %MON dynstat_salt_sd              =   2.7015534926899E-01
(PID.TID 0000.0001) %MON dynstat_salt_del2            =   4.1997511674086E-07
(PID.TID 0000.0001) %MON advcfl_uvel_max              =   3.6048895077185E-04
(PID.TID 0000.0001) %MON advcfl_vvel_max              =   3.3147188435620E-04
(PID.TID 0000.0001) %MON advcfl_wvel_max              =   1.0637615715259E-03
(PID.TID 0000.0001) %MON advcfl_W_hf_max              =   1.0637615715259E-03
(PID.TID 0000.0001) %MON pe_b_mean                    =  -6.8288337237974E-01
(PID.TID 0000.0001) %MON ke_max                       =   5.8211626397685E-06
(PID.TID 0000.0001) %MON ke_mean                      =   8.2059885679859E-09
(PID.TID 0000.0001) %MON ke_vol                       =   4.6182878220296E+12
(PID.TID 0000.0001) // =======================================================
(PID.TID 0000.0001) // End MONITOR dynamic field statistics
(PID.TID 0000.0001) // =======================================================
(PID.TID 0000.0001) // =======================================================
(PID.TID 0000.0001) // Begin OBCS MONITOR field statistics
(PID.TID 0000.0001) // =======================================================
(PID.TID 0000.0001) %MON obc_N_vVel_max               =  -9.0157581524076E-08
(PID.TID 0000.0001) %MON obc_N_vVel_min               =  -9.0157581524079E-08
(PID.TID 0000.0001) %MON obc_N_vVel_mean              =  -9.0157581524079E-08
(PID.TID 0000.0001) %MON obc_N_vVel_sd                =  -5.5851352089648E-28
(PID.TID 0000.0001) %MON obc_N_vVel_Int               =  -5.9504003805892E+00
(PID.TID 0000.0001) // =======================================================
(PID.TID 0000.0001) // End OBCS MONITOR field statistics
(PID.TID 0000.0001) // =======================================================
 cg2d: Sum(rhs),rhsMax =   3.01232366856928E+00  4.53052700082285E+02
(PID.TID 0000.0001)      cg2d_init_res =   2.23265688680541E-06
(PID.TID 0000.0001)      cg2d_iters(min,last) =      -1      66
(PID.TID 0000.0001)      cg2d_last_res =   9.87973699969153E-12
(PID.TID 0000.0001) // =======================================================
(PID.TID 0000.0001) // Begin MONITOR dynamic field statistics
(PID.TID 0000.0001) // =======================================================
(PID.TID 0000.0001) %MON time_tsnumber                =                   241
(PID.TID 0000.0001) %MON time_secondsf                =   2.4100000000000E+04
(PID.TID 0000.0001) %MON dynstat_eta_max              =   5.7961619843799E+00
(PID.TID 0000.0001) %MON dynstat_eta_min              =  -1.4177525471987E+01
(PID.TID 0000.0001) %MON dynstat_eta_mean             =  -2.5272988362353E+00
(PID.TID 0000.0001) %MON dynstat_eta_sd               =   4.9420500371199E+00
(PID.TID 0000.0001) %MON dynstat_eta_del2             =   1.9058058883114E-01
(PID.TID 0000.0001) %MON dynstat_uvel_max             =   2.2597328038554E-03
(PID.TID 0000.0001) %MON dynstat_uvel_min             =  -3.6069300176960E-03
(PID.TID 0000.0001) %MON dynstat_uvel_mean            =   1.1235970207164E-09
(PID.TID 0000.0001) %MON dynstat_uvel_sd              =   8.3304202725771E-05
(PID.TID 0000.0001) %MON dynstat_uvel_del2            =   3.5900317359384E-07
(PID.TID 0000.0001) %MON dynstat_vvel_max             =   3.3161119260141E-03
(PID.TID 0000.0001) %MON dynstat_vvel_min             =  -1.8588221314406E-03
(PID.TID 0000.0001) %MON dynstat_vvel_mean            =  -1.4170998575948E-07
(PID.TID 0000.0001) %MON dynstat_vvel_sd              =   9.8243483607991E-05
(PID.TID 0000.0001) %MON dynstat_vvel_del2            =   4.0718534399873E-07
(PID.TID 0000.0001) %MON dynstat_wvel_max             =   2.1243443131086E-04
(PID.TID 0000.0001) %MON dynstat_wvel_min             =  -1.1010570128742E-04
(PID.TID 0000.0001) %MON dynstat_wvel_mean            =  -1.1520944533799E-10
(PID.TID 0000.0001) %MON dynstat_wvel_sd              =   2.1100859831885E-05
(PID.TID 0000.0001) %MON dynstat_wvel_del2            =   1.0806453292535E-07
(PID.TID 0000.0001) %MON dynstat_theta_max            =   1.2000000000000E+00
(PID.TID 0000.0001) %MON dynstat_theta_min            =  -1.0000000000000E+00
(PID.TID 0000.0001) %MON dynstat_theta_mean           =   5.6545604368382E-01
(PID.TID 0000.0001) %MON dynstat_theta_sd             =   8.4905823156729E-01
(PID.TID 0000.0001) %MON dynstat_theta_del2           =   1.3243967690632E-06
(PID.TID 0000.0001) %MON dynstat_salt_max             =   3.4700000000000E+01
(PID.TID 0000.0001) %MON dynstat_salt_min             =   3.4000000000000E+01
(PID.TID 0000.0001) %MON dynstat_salt_mean            =   3.4498095797997E+01
(PID.TID 0000.0001) %MON dynstat_salt_sd              =   2.7015533725306E-01
(PID.TID 0000.0001) %MON dynstat_salt_del2            =   4.1846522354603E-07
(PID.TID 0000.0001) %MON advcfl_uvel_max              =   3.6069300176960E-04
(PID.TID 0000.0001) %MON advcfl_vvel_max              =   3.3161119260141E-04
(PID.TID 0000.0001) %MON advcfl_wvel_max              =   1.0621721565543E-03
(PID.TID 0000.0001) %MON advcfl_W_hf_max              =   1.0621721565543E-03
(PID.TID 0000.0001) %MON pe_b_mean                    =  -6.8288286136289E-01
(PID.TID 0000.0001) %MON ke_max                       =   5.8159186985721E-06
(PID.TID 0000.0001) %MON ke_mean                      =   8.2303110894737E-09
(PID.TID 0000.0001) %MON ke_vol                       =   4.6182878333744E+12
(PID.TID 0000.0001) // =======================================================
(PID.TID 0000.0001) // End MONITOR dynamic field statistics
(PID.TID 0000.0001) // =======================================================
(PID.TID 0000.0001) // =======================================================
(PID.TID 0000.0001) // Begin OBCS MONITOR field statistics
(PID.TID 0000.0001) // =======================================================
(PID.TID 0000.0001) %MON obc_N_vVel_max               =  -1.1945452406881E-07
(PID.TID 0000.0001) %MON obc_N_vVel_min               =  -1.1945452406882E-07
(PID.TID 0000.0001) %MON obc_N_vVel_mean              =  -1.1945452406881E-07
(PID.TID 0000.0001) %MON obc_N_vVel_sd                =   3.6447795055287E-14
(PID.TID 0000.0001) %MON obc_N_vVel_Int               =  -7.8839985885416E+00
(PID.TID 0000.0001) // =======================================================
(PID.TID 0000.0001) // End OBCS MONITOR field statistics
(PID.TID 0000.0001) // =======================================================
 cg2d: Sum(rhs),rhsMax =   3.01232136484319E+00  4.53052693281460E+02
(PID.TID 0000.0001)      cg2d_init_res =   2.23060474910213E-06
(PID.TID 0000.0001)      cg2d_iters(min,last) =      -1      66
(PID.TID 0000.0001)      cg2d_last_res =   9.98400713062704E-12
(PID.TID 0000.0001) // =======================================================
(PID.TID 0000.0001) // Begin MONITOR dynamic field statistics
(PID.TID 0000.0001) // =======================================================
(PID.TID 0000.0001) %MON time_tsnumber                =                   242
(PID.TID 0000.0001) %MON time_secondsf                =   2.4200000000000E+04
(PID.TID 0000.0001) %MON dynstat_eta_max              =   5.7961646779069E+00
(PID.TID 0000.0001) %MON dynstat_eta_min              =  -1.4177519590834E+01
(PID.TID 0000.0001) %MON dynstat_eta_mean             =  -2.5272968655028E+00
(PID.TID 0000.0001) %MON dynstat_eta_sd               =   4.9420493701619E+00
(PID.TID 0000.0001) %MON dynstat_eta_del2             =   1.9058058887228E-01
(PID.TID 0000.0001) %MON dynstat_uvel_max             =   2.2512776877015E-03
(PID.TID 0000.0001) %MON dynstat_uvel_min             =  -3.6088692381013E-03
(PID.TID 0000.0001) %MON dynstat_uvel_mean            =   8.8756734291687E-10
(PID.TID 0000.0001) %MON dynstat_uvel_sd              =   8.3511893437430E-05
(PID.TID 0000.0001) %MON dynstat_uvel_del2            =   3.5815621280952E-07
(PID.TID 0000.0001) %MON dynstat_vvel_max             =   3.3174237948126E-03
(PID.TID 0000.0001) %MON dynstat_vvel_min             =  -1.8487277196328E-03
(PID.TID 0000.0001) %MON dynstat_vvel_mean            =  -1.6499181511817E-07
(PID.TID 0000.0001) %MON dynstat_vvel_sd              =   9.8324124042054E-05
(PID.TID 0000.0001) %MON dynstat_vvel_del2            =   4.0631873054475E-07
(PID.TID 0000.0001) %MON dynstat_wvel_max             =   2.1211000254723E-04
(PID.TID 0000.0001) %MON dynstat_wvel_min             =  -1.0676374743175E-04
(PID.TID 0000.0001) %MON dynstat_wvel_mean            =  -7.7103485960497E-11
(PID.TID 0000.0001) %MON dynstat_wvel_sd              =   2.1065280647776E-05
(PID.TID 0000.0001) %MON dynstat_wvel_del2            =   1.0794584492710E-07
(PID.TID 0000.0001) %MON dynstat_theta_max            =   1.2000000000000E+00
(PID.TID 0000.0001) %MON dynstat_theta_min            =  -1.0000000000000E+00
(PID.TID 0000.0001) %MON dynstat_theta_mean           =   5.6545584113383E-01
(PID.TID 0000.0001) %MON dynstat_theta_sd             =   8.4905818867770E-01
(PID.TID 0000.0001) %MON dynstat_theta_del2           =   1.3192070000047E-06
(PID.TID 0000.0001) %MON dynstat_salt_max             =   3.4700000000000E+01
(PID.TID 0000.0001) %MON dynstat_salt_min             =   3.4000000000000E+01
(PID.TID 0000.0001) %MON dynstat_salt_mean            =   3.4498095717675E+01
(PID.TID 0000.0001) %MON dynstat_salt_sd              =   2.7015532525121E-01
(PID.TID 0000.0001) %MON dynstat_salt_del2            =   4.1695509575543E-07
(PID.TID 0000.0001) %MON advcfl_uvel_max              =   3.6088692381013E-04
(PID.TID 0000.0001) %MON advcfl_vvel_max              =   3.3174237948126E-04
(PID.TID 0000.0001) %MON advcfl_wvel_max              =   1.0605500127362E-03
(PID.TID 0000.0001) %MON advcfl_W_hf_max              =   1.0605500127362E-03
(PID.TID 0000.0001) %MON pe_b_mean                    =  -6.8288234562414E-01
(PID.TID 0000.0001) %MON ke_max                       =   5.8104181700403E-06
(PID.TID 0000.0001) %MON ke_mean                      =   8.2552374626299E-09
(PID.TID 0000.0001) %MON ke_vol                       =   4.6182878449128E+12
(PID.TID 0000.0001) // =======================================================
(PID.TID 0000.0001) // End MONITOR dynamic field statistics
(PID.TID 0000.0001) // =======================================================
(PID.TID 0000.0001) // =======================================================
(PID.TID 0000.0001) // Begin OBCS MONITOR field statistics
(PID.TID 0000.0001) // =======================================================
(PID.TID 0000.0001) %MON obc_N_vVel_max               =  -1.4482152696700E-07
(PID.TID 0000.0001) %MON obc_N_vVel_min               =  -1.4482152696701E-07
(PID.TID 0000.0001) %MON obc_N_vVel_mean              =  -1.4482152696700E-07
(PID.TID 0000.0001) %MON obc_N_vVel_sd                =   3.9200778606688E-14
(PID.TID 0000.0001) %MON obc_N_vVel_Int               =  -9.5582207798222E+00
(PID.TID 0000.0001) // =======================================================
(PID.TID 0000.0001) // End OBCS MONITOR field statistics
(PID.TID 0000.0001) // =======================================================
 cg2d: Sum(rhs),rhsMax =   3.01231903351199E+00  4.53052686434808E+02
(PID.TID 0000.0001)      cg2d_init_res =   2.23118396569257E-06
(PID.TID 0000.0001)      cg2d_iters(min,last) =      -1      66
(PID.TID 0000.0001)      cg2d_last_res =   9.93992020598715E-12
(PID.TID 0000.0001) // =======================================================
(PID.TID 0000.0001) // Begin MONITOR dynamic field statistics
(PID.TID 0000.0001) // =======================================================
(PID.TID 0000.0001) %MON time_tsnumber                =                   243
(PID.TID 0000.0001) %MON time_secondsf                =   2.4300000000000E+04
(PID.TID 0000.0001) %MON dynstat_eta_max              =   5.7961673992892E+00
(PID.TID 0000.0001) %MON dynstat_eta_min              =  -1.4177513680451E+01
(PID.TID 0000.0001) %MON dynstat_eta_mean             =  -2.5272948713543E+00
(PID.TID 0000.0001) %MON dynstat_eta_sd               =   4.9420486997102E+00
(PID.TID 0000.0001) %MON dynstat_eta_del2             =   1.9058058890817E-01
(PID.TID 0000.0001) %MON dynstat_uvel_max             =   2.2427126749243E-03
(PID.TID 0000.0001) %MON dynstat_uvel_min             =  -3.6107078146119E-03
(PID.TID 0000.0001) %MON dynstat_uvel_mean            =   6.3967163265817E-10
(PID.TID 0000.0001) %MON dynstat_uvel_sd              =   8.3721665861900E-05
(PID.TID 0000.0001) %MON dynstat_uvel_del2            =   3.5731037438199E-07
(PID.TID 0000.0001) %MON dynstat_vvel_max             =   3.3186551127402E-03
(PID.TID 0000.0001) %MON dynstat_vvel_min             =  -1.8385485617340E-03
(PID.TID 0000.0001) %MON dynstat_vvel_mean            =  -1.8320856383297E-07
(PID.TID 0000.0001) %MON dynstat_vvel_sd              =   9.8407695597603E-05
(PID.TID 0000.0001) %MON dynstat_vvel_del2            =   4.0550072536029E-07
(PID.TID 0000.0001) %MON dynstat_wvel_max             =   2.1177910056462E-04
(PID.TID 0000.0001) %MON dynstat_wvel_min             =  -1.1063751710848E-04
(PID.TID 0000.0001) %MON dynstat_wvel_mean            =  -3.6001193888286E-11
(PID.TID 0000.0001) %MON dynstat_wvel_sd              =   2.1035935747666E-05
(PID.TID 0000.0001) %MON dynstat_wvel_del2            =   1.0790423791089E-07
(PID.TID 0000.0001) %MON dynstat_theta_max            =   1.2000000000000E+00
(PID.TID 0000.0001) %MON dynstat_theta_min            =  -1.0000000000000E+00
(PID.TID 0000.0001) %MON dynstat_theta_mean           =   5.6545563856746E-01
(PID.TID 0000.0001) %MON dynstat_theta_sd             =   8.4905814577835E-01
(PID.TID 0000.0001) %MON dynstat_theta_del2           =   1.3140320858559E-06
(PID.TID 0000.0001) %MON dynstat_salt_max             =   3.4700000000000E+01
(PID.TID 0000.0001) %MON dynstat_salt_min             =   3.4000000000000E+01
(PID.TID 0000.0001) %MON dynstat_salt_mean            =   3.4498095637348E+01
(PID.TID 0000.0001) %MON dynstat_salt_sd              =   2.7015531324471E-01
(PID.TID 0000.0001) %MON dynstat_salt_del2            =   4.1545052542205E-07
(PID.TID 0000.0001) %MON advcfl_uvel_max              =   3.6107078146119E-04
(PID.TID 0000.0001) %MON advcfl_vvel_max              =   3.3186551127402E-04
(PID.TID 0000.0001) %MON advcfl_wvel_max              =   1.0588955028231E-03
(PID.TID 0000.0001) %MON advcfl_W_hf_max              =   1.0588955028231E-03
(PID.TID 0000.0001) %MON pe_b_mean                    =  -6.8288182624499E-01
(PID.TID 0000.0001) %MON ke_max                       =   5.8046654420861E-06
(PID.TID 0000.0001) %MON ke_mean                      =   8.2806717022471E-09
(PID.TID 0000.0001) %MON ke_vol                       =   4.6182878566189E+12
(PID.TID 0000.0001) // =======================================================
(PID.TID 0000.0001) // End MONITOR dynamic field statistics
(PID.TID 0000.0001) // =======================================================
(PID.TID 0000.0001) // =======================================================
(PID.TID 0000.0001) // Begin OBCS MONITOR field statistics
(PID.TID 0000.0001) // =======================================================
(PID.TID 0000.0001) %MON obc_N_vVel_max               =  -1.6584584632615E-07
(PID.TID 0000.0001) %MON obc_N_vVel_min               =  -1.6584584632616E-07
(PID.TID 0000.0001) %MON obc_N_vVel_mean              =  -1.6584584632615E-07
(PID.TID 0000.0001) %MON obc_N_vVel_sd                =   4.6253548782330E-14
(PID.TID 0000.0001) %MON obc_N_vVel_Int               =  -1.0945825857526E+01
(PID.TID 0000.0001) // =======================================================
(PID.TID 0000.0001) // End OBCS MONITOR field statistics
(PID.TID 0000.0001) // =======================================================
 cg2d: Sum(rhs),rhsMax =   3.01231668097974E+00  4.53052679491278E+02
(PID.TID 0000.0001)      cg2d_init_res =   2.23355360093465E-06
(PID.TID 0000.0001)      cg2d_iters(min,last) =      -1      66
(PID.TID 0000.0001)      cg2d_last_res =   9.80004834536974E-12
(PID.TID 0000.0001) // =======================================================
(PID.TID 0000.0001) // Begin MONITOR dynamic field statistics
(PID.TID 0000.0001) // =======================================================
(PID.TID 0000.0001) %MON time_tsnumber                =                   244
(PID.TID 0000.0001) %MON time_secondsf                =   2.4400000000000E+04
(PID.TID 0000.0001) %MON dynstat_eta_max              =   5.7961701404173E+00
(PID.TID 0000.0001) %MON dynstat_eta_min              =  -1.4177507752417E+01
(PID.TID 0000.0001) %MON dynstat_eta_mean             =  -2.5272928588780E+00
(PID.TID 0000.0001) %MON dynstat_eta_sd               =   4.9420480275198E+00
(PID.TID 0000.0001) %MON dynstat_eta_del2             =   1.9058058893777E-01
(PID.TID 0000.0001) %MON dynstat_uvel_max             =   2.2340388318671E-03
(PID.TID 0000.0001) %MON dynstat_uvel_min             =  -3.6124463856706E-03
(PID.TID 0000.0001) %MON dynstat_uvel_mean            =   3.8881474067510E-10
(PID.TID 0000.0001) %MON dynstat_uvel_sd              =   8.3933522691289E-05
(PID.TID 0000.0001) %MON dynstat_uvel_del2            =   3.5646580937467E-07
(PID.TID 0000.0001) %MON dynstat_vvel_max             =   3.3198064484692E-03
(PID.TID 0000.0001) %MON dynstat_vvel_min             =  -1.8282861342236E-03
(PID.TID 0000.0001) %MON dynstat_vvel_mean            =  -1.9627861817475E-07
(PID.TID 0000.0001) %MON dynstat_vvel_sd              =   9.8492848141537E-05
(PID.TID 0000.0001) %MON dynstat_vvel_del2            =   4.0470685670802E-07
(PID.TID 0000.0001) %MON dynstat_wvel_max             =   2.1144180045876E-04
(PID.TID 0000.0001) %MON dynstat_wvel_min             =  -1.1463065276437E-04
(PID.TID 0000.0001) %MON dynstat_wvel_mean            =   6.5329810482480E-12
(PID.TID 0000.0001) %MON dynstat_wvel_sd              =   2.1009823870322E-05
(PID.TID 0000.0001) %MON dynstat_wvel_del2            =   1.0789764675038E-07
(PID.TID 0000.0001) %MON dynstat_theta_max            =   1.2000000000000E+00
(PID.TID 0000.0001) %MON dynstat_theta_min            =  -1.0000000000000E+00
(PID.TID 0000.0001) %MON dynstat_theta_mean           =   5.6545543598648E-01
(PID.TID 0000.0001) %MON dynstat_theta_sd             =   8.4905810287368E-01
(PID.TID 0000.0001) %MON dynstat_theta_del2           =   1.3088940387064E-06
(PID.TID 0000.0001) %MON dynstat_salt_max             =   3.4700000000000E+01
(PID.TID 0000.0001) %MON dynstat_salt_min             =   3.4000000000000E+01
(PID.TID 0000.0001) %MON dynstat_salt_mean            =   3.4498095557015E+01
(PID.TID 0000.0001) %MON dynstat_salt_sd              =   2.7015530123478E-01
(PID.TID 0000.0001) %MON dynstat_salt_del2            =   4.1395853574992E-07
(PID.TID 0000.0001) %MON advcfl_uvel_max              =   3.6124463856706E-04
(PID.TID 0000.0001) %MON advcfl_vvel_max              =   3.3198064484692E-04
(PID.TID 0000.0001) %MON advcfl_wvel_max              =   1.0572090022938E-03
(PID.TID 0000.0001) %MON advcfl_W_hf_max              =   1.0572090022938E-03
(PID.TID 0000.0001) %MON pe_b_mean                    =  -6.8288130431606E-01
(PID.TID 0000.0001) %MON ke_max                       =   5.7986647531469E-06
(PID.TID 0000.0001) %MON ke_mean                      =   8.3064827848166E-09
(PID.TID 0000.0001) %MON ke_vol                       =   4.6182878684642E+12
(PID.TID 0000.0001) // =======================================================
(PID.TID 0000.0001) // End MONITOR dynamic field statistics
(PID.TID 0000.0001) // =======================================================
(PID.TID 0000.0001) // =======================================================
(PID.TID 0000.0001) // Begin OBCS MONITOR field statistics
(PID.TID 0000.0001) // =======================================================
(PID.TID 0000.0001) %MON obc_N_vVel_max               =  -1.8229102393126E-07
(PID.TID 0000.0001) %MON obc_N_vVel_min               =  -1.8229102393127E-07
(PID.TID 0000.0001) %MON obc_N_vVel_mean              =  -1.8229102393126E-07
(PID.TID 0000.0001) %MON obc_N_vVel_sd                =   5.0556001947504E-14
(PID.TID 0000.0001) %MON obc_N_vVel_Int               =  -1.2031207579463E+01
(PID.TID 0000.0001) // =======================================================
(PID.TID 0000.0001) // End OBCS MONITOR field statistics
(PID.TID 0000.0001) // =======================================================
 cg2d: Sum(rhs),rhsMax =   3.01231431370154E+00  4.53052672405816E+02
(PID.TID 0000.0001)      cg2d_init_res =   2.23669457988618E-06
(PID.TID 0000.0001)      cg2d_iters(min,last) =      -1      66
(PID.TID 0000.0001)      cg2d_last_res =   9.63929819837254E-12
(PID.TID 0000.0001) // =======================================================
(PID.TID 0000.0001) // Begin MONITOR dynamic field statistics
(PID.TID 0000.0001) // =======================================================
(PID.TID 0000.0001) %MON time_tsnumber                =                   245
(PID.TID 0000.0001) %MON time_secondsf                =   2.4500000000000E+04
(PID.TID 0000.0001) %MON dynstat_eta_max              =   5.7961728933191E+00
(PID.TID 0000.0001) %MON dynstat_eta_min              =  -1.4177501817855E+01
(PID.TID 0000.0001) %MON dynstat_eta_mean             =  -2.5272908332385E+00
(PID.TID 0000.0001) %MON dynstat_eta_sd               =   4.9420473552267E+00
(PID.TID 0000.0001) %MON dynstat_eta_del2             =   1.9058058896028E-01
(PID.TID 0000.0001) %MON dynstat_uvel_max             =   2.2252572124017E-03
(PID.TID 0000.0001) %MON dynstat_uvel_min             =  -3.6140855836173E-03
(PID.TID 0000.0001) %MON dynstat_uvel_mean            =   1.4318094830365E-10
(PID.TID 0000.0001) %MON dynstat_uvel_sd              =   8.4147467136768E-05
(PID.TID 0000.0001) %MON dynstat_uvel_del2            =   3.5562266868231E-07
(PID.TID 0000.0001) %MON dynstat_vvel_max             =   3.3208782845611E-03
(PID.TID 0000.0001) %MON dynstat_vvel_min             =  -1.8179420283353E-03
(PID.TID 0000.0001) %MON dynstat_vvel_mean            =  -2.0429218879731E-07
(PID.TID 0000.0001) %MON dynstat_vvel_sd              =   9.8578068833587E-05
(PID.TID 0000.0001) %MON dynstat_vvel_del2            =   4.0391054745547E-07
(PID.TID 0000.0001) %MON dynstat_wvel_max             =   2.1109817883129E-04
(PID.TID 0000.0001) %MON dynstat_wvel_min             =  -1.1665193003508E-04
(PID.TID 0000.0001) %MON dynstat_wvel_mean            =   4.9034052717826E-11
(PID.TID 0000.0001) %MON dynstat_wvel_sd              =   2.0983608704156E-05
(PID.TID 0000.0001) %MON dynstat_wvel_del2            =   1.0788089230657E-07
(PID.TID 0000.0001) %MON dynstat_theta_max            =   1.2000000000000E+00
(PID.TID 0000.0001) %MON dynstat_theta_min            =  -1.0000000000000E+00
(PID.TID 0000.0001) %MON dynstat_theta_mean           =   5.6545523339274E-01
(PID.TID 0000.0001) %MON dynstat_theta_sd             =   8.4905805992141E-01
(PID.TID 0000.0001) %MON dynstat_theta_del2           =   1.3038150787839E-06
(PID.TID 0000.0001) %MON dynstat_salt_max             =   3.4700000000000E+01
(PID.TID 0000.0001) %MON dynstat_salt_min             =   3.4000000000000E+01
(PID.TID 0000.0001) %MON dynstat_salt_mean            =   3.4498095476678E+01
(PID.TID 0000.0001) %MON dynstat_salt_sd              =   2.7015528920825E-01
(PID.TID 0000.0001) %MON dynstat_salt_del2            =   4.1248630157617E-07
(PID.TID 0000.0001) %MON advcfl_uvel_max              =   3.6140855836173E-04
(PID.TID 0000.0001) %MON advcfl_vvel_max              =   3.3208782845611E-04
(PID.TID 0000.0001) %MON advcfl_wvel_max              =   1.0554908941565E-03
(PID.TID 0000.0001) %MON advcfl_W_hf_max              =   1.0554908941565E-03
(PID.TID 0000.0001) %MON pe_b_mean                    =  -6.8288078090127E-01
(PID.TID 0000.0001) %MON ke_max                       =   5.7924202023134E-06
(PID.TID 0000.0001) %MON ke_mean                      =   8.3325233684370E-09
(PID.TID 0000.0001) %MON ke_vol                       =   4.6182878804183E+12
(PID.TID 0000.0001) // =======================================================
(PID.TID 0000.0001) // End MONITOR dynamic field statistics
(PID.TID 0000.0001) // =======================================================
(PID.TID 0000.0001) // =======================================================
(PID.TID 0000.0001) // Begin OBCS MONITOR field statistics
(PID.TID 0000.0001) // =======================================================
(PID.TID 0000.0001) %MON obc_N_vVel_max               =  -1.9408818704920E-07
(PID.TID 0000.0001) %MON obc_N_vVel_min               =  -1.9408818704920E-07
(PID.TID 0000.0001) %MON obc_N_vVel_mean              =  -1.9408818704920E-07
(PID.TID 0000.0001) %MON obc_N_vVel_sd                =   1.0658141036402E-14
(PID.TID 0000.0001) %MON obc_N_vVel_Int               =  -1.2809820345247E+01
(PID.TID 0000.0001) // =======================================================
(PID.TID 0000.0001) // End OBCS MONITOR field statistics
(PID.TID 0000.0001) // =======================================================
 cg2d: Sum(rhs),rhsMax =   3.01231193797283E+00  4.53052665140205E+02
(PID.TID 0000.0001)      cg2d_init_res =   2.23953287989288E-06
(PID.TID 0000.0001)      cg2d_iters(min,last) =      -1      66
(PID.TID 0000.0001)      cg2d_last_res =   9.49928543270399E-12
(PID.TID 0000.0001) // =======================================================
(PID.TID 0000.0001) // Begin MONITOR dynamic field statistics
(PID.TID 0000.0001) // =======================================================
(PID.TID 0000.0001) %MON time_tsnumber                =                   246
(PID.TID 0000.0001) %MON time_secondsf                =   2.4600000000000E+04
(PID.TID 0000.0001) %MON dynstat_eta_max              =   5.7961756504043E+00
(PID.TID 0000.0001) %MON dynstat_eta_min              =  -1.4177495887159E+01
(PID.TID 0000.0001) %MON dynstat_eta_mean             =  -2.5272887995042E+00
(PID.TID 0000.0001) %MON dynstat_eta_sd               =   4.9420466843091E+00
(PID.TID 0000.0001) %MON dynstat_eta_del2             =   1.9058058897529E-01
(PID.TID 0000.0001) %MON dynstat_uvel_max             =   2.2163688585088E-03
(PID.TID 0000.0001) %MON dynstat_uvel_min             =  -3.6156260352929E-03
(PID.TID 0000.0001) %MON dynstat_uvel_mean            =  -8.9959004446027E-11
(PID.TID 0000.0001) %MON dynstat_uvel_sd              =   8.4363502887613E-05
(PID.TID 0000.0001) %MON dynstat_uvel_del2            =   3.5478110118209E-07
(PID.TID 0000.0001) %MON dynstat_vvel_max             =   3.3218710291223E-03
(PID.TID 0000.0001) %MON dynstat_vvel_min             =  -1.8075179342727E-03
(PID.TID 0000.0001) %MON dynstat_vvel_mean            =  -2.0749216687161E-07
(PID.TID 0000.0001) %MON dynstat_vvel_sd              =   9.8661889453532E-05
(PID.TID 0000.0001) %MON dynstat_vvel_del2            =   4.0308672685049E-07
(PID.TID 0000.0001) %MON dynstat_wvel_max             =   2.1074831381442E-04
(PID.TID 0000.0001) %MON dynstat_wvel_min             =  -1.1664789464322E-04
(PID.TID 0000.0001) %MON dynstat_wvel_mean            =   9.0168822207071E-11
(PID.TID 0000.0001) %MON dynstat_wvel_sd              =   2.0954075006063E-05
(PID.TID 0000.0001) %MON dynstat_wvel_del2            =   1.0781180592451E-07
(PID.TID 0000.0001) %MON dynstat_theta_max            =   1.2000000000000E+00
(PID.TID 0000.0001) %MON dynstat_theta_min            =  -1.0000000000000E+00
(PID.TID 0000.0001) %MON dynstat_theta_mean           =   5.6545503078790E-01
(PID.TID 0000.0001) %MON dynstat_theta_sd             =   8.4905801692561E-01
(PID.TID 0000.0001) %MON dynstat_theta_del2           =   1.2988150494207E-06
(PID.TID 0000.0001) %MON dynstat_salt_max             =   3.4700000000000E+01
(PID.TID 0000.0001) %MON dynstat_salt_min             =   3.4000000000000E+01
(PID.TID 0000.0001) %MON dynstat_salt_mean            =   3.4498095396337E+01
(PID.TID 0000.0001) %MON dynstat_salt_sd              =   2.7015527716625E-01
(PID.TID 0000.0001) %MON dynstat_salt_del2            =   4.1104018318947E-07
(PID.TID 0000.0001) %MON advcfl_uvel_max              =   3.6156260352929E-04
(PID.TID 0000.0001) %MON advcfl_vvel_max              =   3.3218710291223E-04
(PID.TID 0000.0001) %MON advcfl_wvel_max              =   1.0537415690721E-03
(PID.TID 0000.0001) %MON advcfl_W_hf_max              =   1.0537415690721E-03
(PID.TID 0000.0001) %MON pe_b_mean                    =  -6.8288025700621E-01
(PID.TID 0000.0001) %MON ke_max                       =   5.7859357664198E-06
(PID.TID 0000.0001) %MON ke_mean                      =   8.3586501668791E-09
(PID.TID 0000.0001) %MON ke_vol                       =   4.6182878924506E+12
(PID.TID 0000.0001) // =======================================================
(PID.TID 0000.0001) // End MONITOR dynamic field statistics
(PID.TID 0000.0001) // =======================================================
(PID.TID 0000.0001) // =======================================================
(PID.TID 0000.0001) // Begin OBCS MONITOR field statistics
(PID.TID 0000.0001) // =======================================================
(PID.TID 0000.0001) %MON obc_N_vVel_max               =  -2.0132189160604E-07
(PID.TID 0000.0001) %MON obc_N_vVel_min               =  -2.0132189160605E-07
(PID.TID 0000.0001) %MON obc_N_vVel_mean              =  -2.0132189160605E-07
(PID.TID 0000.0001) %MON obc_N_vVel_sd                =  -2.7073706267185E-27
(PID.TID 0000.0001) %MON obc_N_vVel_Int               =  -1.3287244845999E+01
(PID.TID 0000.0001) // =======================================================
(PID.TID 0000.0001) // End OBCS MONITOR field statistics
(PID.TID 0000.0001) // =======================================================
 cg2d: Sum(rhs),rhsMax =   3.01230955973977E+00  4.53052657663791E+02
(PID.TID 0000.0001)      cg2d_init_res =   2.24108133171546E-06
(PID.TID 0000.0001)      cg2d_iters(min,last) =      -1      66
(PID.TID 0000.0001)      cg2d_last_res =   9.40193961117024E-12
(PID.TID 0000.0001) // =======================================================
(PID.TID 0000.0001) // Begin MONITOR dynamic field statistics
(PID.TID 0000.0001) // =======================================================
(PID.TID 0000.0001) %MON time_tsnumber                =                   247
(PID.TID 0000.0001) %MON time_secondsf                =   2.4700000000000E+04
(PID.TID 0000.0001) %MON dynstat_eta_max              =   5.7961784047048E+00
(PID.TID 0000.0001) %MON dynstat_eta_min              =  -1.4177489969753E+01
(PID.TID 0000.0001) %MON dynstat_eta_mean             =  -2.5272867624929E+00
(PID.TID 0000.0001) %MON dynstat_eta_sd               =   4.9420460160602E+00
(PID.TID 0000.0001) %MON dynstat_eta_del2             =   1.9058058898303E-01
(PID.TID 0000.0001) %MON dynstat_uvel_max             =   2.2073748013813E-03
(PID.TID 0000.0001) %MON dynstat_uvel_min             =  -3.6170683629371E-03
(PID.TID 0000.0001) %MON dynstat_uvel_mean            =  -3.0441817715554E-10
(PID.TID 0000.0001) %MON dynstat_uvel_sd              =   8.4581634061603E-05
(PID.TID 0000.0001) %MON dynstat_uvel_del2            =   3.5394125200528E-07
(PID.TID 0000.0001) %MON dynstat_vvel_max             =   3.3227850290229E-03
(PID.TID 0000.0001) %MON dynstat_vvel_min             =  -1.7970156226141E-03
(PID.TID 0000.0001) %MON dynstat_vvel_mean            =  -2.0625168644508E-07
(PID.TID 0000.0001) %MON dynstat_vvel_sd              =   9.8743080474014E-05
(PID.TID 0000.0001) %MON dynstat_vvel_del2            =   4.0221512288211E-07
(PID.TID 0000.0001) %MON dynstat_wvel_max             =   2.1039228498134E-04
(PID.TID 0000.0001) %MON dynstat_wvel_min             =  -1.1460150764165E-04
(PID.TID 0000.0001) %MON dynstat_wvel_mean            =   1.2876899149535E-10
(PID.TID 0000.0001) %MON dynstat_wvel_sd              =   2.0918550803226E-05
(PID.TID 0000.0001) %MON dynstat_wvel_del2            =   1.0765661571744E-07
(PID.TID 0000.0001) %MON dynstat_theta_max            =   1.2000000000000E+00
(PID.TID 0000.0001) %MON dynstat_theta_min            =  -1.0000000000000E+00
(PID.TID 0000.0001) %MON dynstat_theta_mean           =   5.6545482817299E-01
(PID.TID 0000.0001) %MON dynstat_theta_sd             =   8.4905797389469E-01
(PID.TID 0000.0001) %MON dynstat_theta_del2           =   1.2939080031319E-06
(PID.TID 0000.0001) %MON dynstat_salt_max             =   3.4700000000000E+01
(PID.TID 0000.0001) %MON dynstat_salt_min             =   3.4000000000000E+01
(PID.TID 0000.0001) %MON dynstat_salt_mean            =   3.4498095315992E+01
(PID.TID 0000.0001) %MON dynstat_salt_sd              =   2.7015526511152E-01
(PID.TID 0000.0001) %MON dynstat_salt_del2            =   4.0962468024740E-07
(PID.TID 0000.0001) %MON advcfl_uvel_max              =   3.6170683629371E-04
(PID.TID 0000.0001) %MON advcfl_vvel_max              =   3.3227850290229E-04
(PID.TID 0000.0001) %MON advcfl_wvel_max              =   1.0519614249067E-03
(PID.TID 0000.0001) %MON advcfl_W_hf_max              =   1.0519614249067E-03
(PID.TID 0000.0001) %MON pe_b_mean                    =  -6.8287973355083E-01
(PID.TID 0000.0001) %MON ke_max                       =   5.7792153200997E-06
(PID.TID 0000.0001) %MON ke_mean                      =   8.3847431268530E-09
(PID.TID 0000.0001) %MON ke_vol                       =   4.6182879045309E+12
(PID.TID 0000.0001) // =======================================================
(PID.TID 0000.0001) // End MONITOR dynamic field statistics
(PID.TID 0000.0001) // =======================================================
(PID.TID 0000.0001) // =======================================================
(PID.TID 0000.0001) // Begin OBCS MONITOR field statistics
(PID.TID 0000.0001) // =======================================================
(PID.TID 0000.0001) %MON obc_N_vVel_max               =  -2.0421312699096E-07
(PID.TID 0000.0001) %MON obc_N_vVel_min               =  -2.0421312699096E-07
(PID.TID 0000.0001) %MON obc_N_vVel_mean              =  -2.0421312699096E-07
(PID.TID 0000.0001) %MON obc_N_vVel_sd                =   3.2464105861324E-14
(PID.TID 0000.0001) %MON obc_N_vVel_Int               =  -1.3478066381403E+01
(PID.TID 0000.0001) // =======================================================
(PID.TID 0000.0001) // End OBCS MONITOR field statistics
(PID.TID 0000.0001) // =======================================================
 cg2d: Sum(rhs),rhsMax =   3.01230718445679E+00  4.53052649953799E+02
(PID.TID 0000.0001)      cg2d_init_res =   2.24058447407472E-06
(PID.TID 0000.0001)      cg2d_iters(min,last) =      -1      66
(PID.TID 0000.0001)      cg2d_last_res =   9.36408521544655E-12
(PID.TID 0000.0001) // =======================================================
(PID.TID 0000.0001) // Begin MONITOR dynamic field statistics
(PID.TID 0000.0001) // =======================================================
(PID.TID 0000.0001) %MON time_tsnumber                =                   248
(PID.TID 0000.0001) %MON time_secondsf                =   2.4800000000000E+04
(PID.TID 0000.0001) %MON dynstat_eta_max              =   5.7961811500311E+00
(PID.TID 0000.0001) %MON dynstat_eta_min              =  -1.4177484073848E+01
(PID.TID 0000.0001) %MON dynstat_eta_mean             =  -2.5272847266537E+00
(PID.TID 0000.0001) %MON dynstat_eta_sd               =   4.9420453515536E+00
(PID.TID 0000.0001) %MON dynstat_eta_del2             =   1.9058058898362E-01
(PID.TID 0000.0001) %MON dynstat_uvel_max             =   2.1982754285954E-03
(PID.TID 0000.0001) %MON dynstat_uvel_min             =  -3.6184131847592E-03
(PID.TID 0000.0001) %MON dynstat_uvel_mean            =  -4.9523095259581E-10
(PID.TID 0000.0001) %MON dynstat_uvel_sd              =   8.4801865088469E-05
(PID.TID 0000.0001) %MON dynstat_uvel_del2            =   3.5310326028917E-07
(PID.TID 0000.0001) %MON dynstat_vvel_max             =   3.3236205765999E-03
(PID.TID 0000.0001) %MON dynstat_vvel_min             =  -1.7864369228722E-03
(PID.TID 0000.0001) %MON dynstat_vvel_mean            =  -2.0104936645403E-07
(PID.TID 0000.0001) %MON dynstat_vvel_sd              =   9.8820807661874E-05
(PID.TID 0000.0001) %MON dynstat_vvel_del2            =   4.0128282812623E-07
(PID.TID 0000.0001) %MON dynstat_wvel_max             =   2.1003017314969E-04
(PID.TID 0000.0001) %MON dynstat_wvel_min             =  -1.1053307242092E-04
(PID.TID 0000.0001) %MON dynstat_wvel_mean            =   1.6385698195169E-10
(PID.TID 0000.0001) %MON dynstat_wvel_sd              =   2.0875244298926E-05
(PID.TID 0000.0001) %MON dynstat_wvel_del2            =   1.0739399917385E-07
(PID.TID 0000.0001) %MON dynstat_theta_max            =   1.2000000000000E+00
(PID.TID 0000.0001) %MON dynstat_theta_min            =  -1.0000000000000E+00
(PID.TID 0000.0001) %MON dynstat_theta_mean           =   5.6545462554965E-01
(PID.TID 0000.0001) %MON dynstat_theta_sd             =   8.4905793084018E-01
(PID.TID 0000.0001) %MON dynstat_theta_del2           =   1.2891016347916E-06
(PID.TID 0000.0001) %MON dynstat_salt_max             =   3.4700000000000E+01
(PID.TID 0000.0001) %MON dynstat_salt_min             =   3.4000000000000E+01
(PID.TID 0000.0001) %MON dynstat_salt_mean            =   3.4498095235644E+01
(PID.TID 0000.0001) %MON dynstat_salt_sd              =   2.7015525304770E-01
(PID.TID 0000.0001) %MON dynstat_salt_del2            =   4.0824223157865E-07
(PID.TID 0000.0001) %MON advcfl_uvel_max              =   3.6184131847592E-04
(PID.TID 0000.0001) %MON advcfl_vvel_max              =   3.3236205765999E-04
(PID.TID 0000.0001) %MON advcfl_wvel_max              =   1.0501508657485E-03
(PID.TID 0000.0001) %MON advcfl_W_hf_max              =   1.0501508657485E-03
(PID.TID 0000.0001) %MON pe_b_mean                    =  -6.8287921135073E-01
(PID.TID 0000.0001) %MON ke_max                       =   5.7722619456503E-06
(PID.TID 0000.0001) %MON ke_mean                      =   8.4107209971683E-09
(PID.TID 0000.0001) %MON ke_vol                       =   4.6182879166308E+12
(PID.TID 0000.0001) // =======================================================
(PID.TID 0000.0001) // End MONITOR dynamic field statistics
(PID.TID 0000.0001) // =======================================================
(PID.TID 0000.0001) // =======================================================
(PID.TID 0000.0001) // Begin OBCS MONITOR field statistics
(PID.TID 0000.0001) // =======================================================
(PID.TID 0000.0001) %MON obc_N_vVel_max               =  -2.0309922393754E-07
(PID.TID 0000.0001) %MON obc_N_vVel_min               =  -2.0309922393754E-07
(PID.TID 0000.0001) %MON obc_N_vVel_mean              =  -2.0309922393754E-07
(PID.TID 0000.0001) %MON obc_N_vVel_sd                =  -1.9753077066734E-27
(PID.TID 0000.0001) %MON obc_N_vVel_Int               =  -1.3404548779878E+01
(PID.TID 0000.0001) // =======================================================
(PID.TID 0000.0001) // End OBCS MONITOR field statistics
(PID.TID 0000.0001) // =======================================================
 cg2d: Sum(rhs),rhsMax =   3.01230481695097E+00  4.53052641995342E+02
(PID.TID 0000.0001)      cg2d_init_res =   2.23754450627775E-06
(PID.TID 0000.0001)      cg2d_iters(min,last) =      -1      66
(PID.TID 0000.0001)      cg2d_last_res =   9.35535677643588E-12
(PID.TID 0000.0001) // =======================================================
(PID.TID 0000.0001) // Begin MONITOR dynamic field statistics
(PID.TID 0000.0001) // =======================================================
(PID.TID 0000.0001) %MON time_tsnumber                =                   249
(PID.TID 0000.0001) %MON time_secondsf                =   2.4900000000000E+04
(PID.TID 0000.0001) %MON dynstat_eta_max              =   5.7961838810816E+00
(PID.TID 0000.0001) %MON dynstat_eta_min              =  -1.4177478206223E+01
(PID.TID 0000.0001) %MON dynstat_eta_mean             =  -2.5272826959536E+00
(PID.TID 0000.0001) %MON dynstat_eta_sd               =   4.9420446916366E+00
(PID.TID 0000.0001) %MON dynstat_eta_del2             =   1.9058058897745E-01
(PID.TID 0000.0001) %MON dynstat_uvel_max             =   2.1890717430217E-03
(PID.TID 0000.0001) %MON dynstat_uvel_min             =  -3.6196611156267E-03
(PID.TID 0000.0001) %MON dynstat_uvel_mean            =  -6.5869663335419E-10
(PID.TID 0000.0001) %MON dynstat_uvel_sd              =   8.5024200668655E-05
(PID.TID 0000.0001) %MON dynstat_uvel_del2            =   3.5226725958851E-07
(PID.TID 0000.0001) %MON dynstat_vvel_max             =   3.3243779474699E-03
(PID.TID 0000.0001) %MON dynstat_vvel_min             =  -1.7757837014578E-03
(PID.TID 0000.0001) %MON dynstat_vvel_mean            =  -1.9244328791394E-07
(PID.TID 0000.0001) %MON dynstat_vvel_sd              =   9.8894731750669E-05
(PID.TID 0000.0001) %MON dynstat_vvel_del2            =   4.0028583620987E-07
(PID.TID 0000.0001) %MON dynstat_wvel_max             =   2.0966205962896E-04
(PID.TID 0000.0001) %MON dynstat_wvel_min             =  -1.0450045135443E-04
(PID.TID 0000.0001) %MON dynstat_wvel_mean            =   1.9465995292936E-10
(PID.TID 0000.0001) %MON dynstat_wvel_sd              =   2.0823457440081E-05
(PID.TID 0000.0001) %MON dynstat_wvel_del2            =   1.0701743771295E-07
(PID.TID 0000.0001) %MON dynstat_theta_max            =   1.2000000000000E+00
(PID.TID 0000.0001) %MON dynstat_theta_min            =  -1.0000000000000E+00
(PID.TID 0000.0001) %MON dynstat_theta_mean           =   5.6545442291902E-01
(PID.TID 0000.0001) %MON dynstat_theta_sd             =   8.4905788779186E-01
(PID.TID 0000.0001) %MON dynstat_theta_del2           =   1.2843955833131E-06
(PID.TID 0000.0001) %MON dynstat_salt_max             =   3.4700000000000E+01
(PID.TID 0000.0001) %MON dynstat_salt_min             =   3.4000000000000E+01
(PID.TID 0000.0001) %MON dynstat_salt_mean            =   3.4498095155292E+01
(PID.TID 0000.0001) %MON dynstat_salt_sd              =   2.7015524098422E-01
(PID.TID 0000.0001) %MON dynstat_salt_del2            =   4.0689262271478E-07
(PID.TID 0000.0001) %MON advcfl_uvel_max              =   3.6196611156267E-04
(PID.TID 0000.0001) %MON advcfl_vvel_max              =   3.3243779474699E-04
(PID.TID 0000.0001) %MON advcfl_wvel_max              =   1.0483102981448E-03
(PID.TID 0000.0001) %MON advcfl_W_hf_max              =   1.0483102981448E-03
(PID.TID 0000.0001) %MON pe_b_mean                    =  -6.8287869109930E-01
(PID.TID 0000.0001) %MON ke_max                       =   5.7650793947425E-06
(PID.TID 0000.0001) %MON ke_mean                      =   8.4365513411930E-09
(PID.TID 0000.0001) %MON ke_vol                       =   4.6182879287237E+12
(PID.TID 0000.0001) // =======================================================
(PID.TID 0000.0001) // End MONITOR dynamic field statistics
(PID.TID 0000.0001) // =======================================================
(PID.TID 0000.0001) // =======================================================
(PID.TID 0000.0001) // Begin OBCS MONITOR field statistics
(PID.TID 0000.0001) // =======================================================
(PID.TID 0000.0001) %MON obc_N_vVel_max               =  -1.9841137575303E-07
(PID.TID 0000.0001) %MON obc_N_vVel_min               =  -1.9841137575304E-07
(PID.TID 0000.0001) %MON obc_N_vVel_mean              =  -1.9841137575303E-07
(PID.TID 0000.0001) %MON obc_N_vVel_sd                =   5.6229480774108E-14
(PID.TID 0000.0001) %MON obc_N_vVel_Int               =  -1.3095150799700E+01
(PID.TID 0000.0001) // =======================================================
(PID.TID 0000.0001) // End OBCS MONITOR field statistics
(PID.TID 0000.0001) // =======================================================
 cg2d: Sum(rhs),rhsMax =   3.01230246133834E+00  4.53052633781194E+02
(PID.TID 0000.0001)      cg2d_init_res =   2.23181703649814E-06
(PID.TID 0000.0001)      cg2d_iters(min,last) =      -1      66
(PID.TID 0000.0001)      cg2d_last_res =   9.32271213301999E-12
(PID.TID 0000.0001) // =======================================================
(PID.TID 0000.0001) // Begin MONITOR dynamic field statistics
(PID.TID 0000.0001) // =======================================================
(PID.TID 0000.0001) %MON time_tsnumber                =                   250
(PID.TID 0000.0001) %MON time_secondsf                =   2.5000000000000E+04
(PID.TID 0000.0001) %MON dynstat_eta_max              =   5.7961865937644E+00
(PID.TID 0000.0001) %MON dynstat_eta_min              =  -1.4177472372184E+01
(PID.TID 0000.0001) %MON dynstat_eta_mean             =  -2.5272806738054E+00
(PID.TID 0000.0001) %MON dynstat_eta_sd               =   4.9420440369296E+00
(PID.TID 0000.0001) %MON dynstat_eta_del2             =   1.9058058896525E-01
(PID.TID 0000.0001) %MON dynstat_uvel_max             =   2.1797647566881E-03
(PID.TID 0000.0001) %MON dynstat_uvel_min             =  -3.6208127684518E-03
(PID.TID 0000.0001) %MON dynstat_uvel_mean            =  -7.9241149187709E-10
(PID.TID 0000.0001) %MON dynstat_uvel_sd              =   8.5248645595588E-05
(PID.TID 0000.0001) %MON dynstat_uvel_del2            =   3.5143337595505E-07
(PID.TID 0000.0001) %MON dynstat_vvel_max             =   3.3250573841057E-03
(PID.TID 0000.0001) %MON dynstat_vvel_min             =  -1.7650578432757E-03
(PID.TID 0000.0001) %MON dynstat_vvel_mean            =  -1.8104471163678E-07
(PID.TID 0000.0001) %MON dynstat_vvel_sd              =   9.8965041353343E-05
(PID.TID 0000.0001) %MON dynstat_vvel_del2            =   3.9922938541945E-07
(PID.TID 0000.0001) %MON dynstat_wvel_max             =   2.0928802537487E-04
(PID.TID 0000.0001) %MON dynstat_wvel_min             =  -1.0587057309756E-04
(PID.TID 0000.0001) %MON dynstat_wvel_mean            =   2.2061476505851E-10
(PID.TID 0000.0001) %MON dynstat_wvel_sd              =   2.0763654663222E-05
(PID.TID 0000.0001) %MON dynstat_wvel_del2            =   1.0653570957271E-07
(PID.TID 0000.0001) %MON dynstat_theta_max            =   1.2000000000000E+00
(PID.TID 0000.0001) %MON dynstat_theta_min            =  -1.0000000000000E+00
(PID.TID 0000.0001) %MON dynstat_theta_mean           =   5.6545422028244E-01
(PID.TID 0000.0001) %MON dynstat_theta_sd             =   8.4905784473401E-01
(PID.TID 0000.0001) %MON dynstat_theta_del2           =   1.2797805939520E-06
(PID.TID 0000.0001) %MON dynstat_salt_max             =   3.4700000000000E+01
(PID.TID 0000.0001) %MON dynstat_salt_min             =   3.4000000000000E+01
(PID.TID 0000.0001) %MON dynstat_salt_mean            =   3.4498095074938E+01
(PID.TID 0000.0001) %MON dynstat_salt_sd              =   2.7015522891581E-01
(PID.TID 0000.0001) %MON dynstat_salt_del2            =   4.0557293011061E-07
(PID.TID 0000.0001) %MON advcfl_uvel_max              =   3.6208127684518E-04
(PID.TID 0000.0001) %MON advcfl_vvel_max              =   3.3250573841057E-04
(PID.TID 0000.0001) %MON advcfl_wvel_max              =   1.0464401268743E-03
(PID.TID 0000.0001) %MON advcfl_W_hf_max              =   1.0464401268743E-03
(PID.TID 0000.0001) %MON pe_b_mean                    =  -6.8287817335980E-01
(PID.TID 0000.0001) %MON ke_max                       =   5.7576713684242E-06
(PID.TID 0000.0001) %MON ke_mean                      =   8.4622539564277E-09
(PID.TID 0000.0001) %MON ke_vol                       =   4.6182879407860E+12
(PID.TID 0000.0001) // =======================================================
(PID.TID 0000.0001) // End MONITOR dynamic field statistics
(PID.TID 0000.0001) // =======================================================
(PID.TID 0000.0001) // =======================================================
(PID.TID 0000.0001) // Begin OBCS MONITOR field statistics
(PID.TID 0000.0001) // =======================================================
(PID.TID 0000.0001) %MON obc_N_vVel_max               =  -1.9065120602219E-07
(PID.TID 0000.0001) %MON obc_N_vVel_min               =  -1.9065120602219E-07
(PID.TID 0000.0001) %MON obc_N_vVel_mean              =  -1.9065120602219E-07
(PID.TID 0000.0001) %MON obc_N_vVel_sd                =   4.2854033501580E-14
(PID.TID 0000.0001) %MON obc_N_vVel_Int               =  -1.2582979597464E+01
(PID.TID 0000.0001) // =======================================================
(PID.TID 0000.0001) // End OBCS MONITOR field statistics
(PID.TID 0000.0001) // =======================================================
 cg2d: Sum(rhs),rhsMax =   3.01230012095924E+00  4.53052625311516E+02
(PID.TID 0000.0001)      cg2d_init_res =   2.22358437593488E-06
(PID.TID 0000.0001)      cg2d_iters(min,last) =      -1      66
(PID.TID 0000.0001)      cg2d_last_res =   9.22311479265039E-12
(PID.TID 0000.0001) // =======================================================
(PID.TID 0000.0001) // Begin MONITOR dynamic field statistics
(PID.TID 0000.0001) // =======================================================
(PID.TID 0000.0001) %MON time_tsnumber                =                   251
(PID.TID 0000.0001) %MON time_secondsf                =   2.5100000000000E+04
(PID.TID 0000.0001) %MON dynstat_eta_max              =   5.7961892845090E+00
(PID.TID 0000.0001) %MON dynstat_eta_min              =  -1.4177466575551E+01
(PID.TID 0000.0001) %MON dynstat_eta_mean             =  -2.5272786630126E+00
(PID.TID 0000.0001) %MON dynstat_eta_sd               =   4.9420433878246E+00
(PID.TID 0000.0001) %MON dynstat_eta_del2             =   1.9058058894782E-01
(PID.TID 0000.0001) %MON dynstat_uvel_max             =   2.1703554699410E-03
(PID.TID 0000.0001) %MON dynstat_uvel_min             =  -3.6218687547509E-03
(PID.TID 0000.0001) %MON dynstat_uvel_mean            =  -8.9520215664074E-10
(PID.TID 0000.0001) %MON dynstat_uvel_sd              =   8.5475204587366E-05
(PID.TID 0000.0001) %MON dynstat_uvel_del2            =   3.5060172745372E-07
(PID.TID 0000.0001) %MON dynstat_vvel_max             =   3.3256591257489E-03
(PID.TID 0000.0001) %MON dynstat_vvel_min             =  -1.7542612324633E-03
(PID.TID 0000.0001) %MON dynstat_vvel_mean            =  -1.6749251355619E-07
(PID.TID 0000.0001) %MON dynstat_vvel_sd              =   9.9032414273247E-05
(PID.TID 0000.0001) %MON dynstat_vvel_del2            =   3.9812708714522E-07
(PID.TID 0000.0001) %MON dynstat_wvel_max             =   2.0890815109498E-04
(PID.TID 0000.0001) %MON dynstat_wvel_min             =  -1.0918940148667E-04
(PID.TID 0000.0001) %MON dynstat_wvel_mean            =   2.4136761597009E-10
(PID.TID 0000.0001) %MON dynstat_wvel_sd              =   2.0697380892270E-05
(PID.TID 0000.0001) %MON dynstat_wvel_del2            =   1.0597153049194E-07
(PID.TID 0000.0001) %MON dynstat_theta_max            =   1.2000000000000E+00
(PID.TID 0000.0001) %MON dynstat_theta_min            =  -1.0000000000000E+00
(PID.TID 0000.0001) %MON dynstat_theta_mean           =   5.6545401764110E-01
(PID.TID 0000.0001) %MON dynstat_theta_sd             =   8.4905780168300E-01
(PID.TID 0000.0001) %MON dynstat_theta_del2           =   1.2752402537334E-06
(PID.TID 0000.0001) %MON dynstat_salt_max             =   3.4700000000000E+01
(PID.TID 0000.0001) %MON dynstat_salt_min             =   3.4000000000000E+01
(PID.TID 0000.0001) %MON dynstat_salt_mean            =   3.4498094994583E+01
(PID.TID 0000.0001) %MON dynstat_salt_sd              =   2.7015521684793E-01
(PID.TID 0000.0001) %MON dynstat_salt_del2            =   4.0427788609539E-07
(PID.TID 0000.0001) %MON advcfl_uvel_max              =   3.6218687547509E-04
(PID.TID 0000.0001) %MON advcfl_vvel_max              =   3.3256591257489E-04
(PID.TID 0000.0001) %MON advcfl_wvel_max              =   1.0445407554749E-03
(PID.TID 0000.0001) %MON advcfl_W_hf_max              =   1.0445407554749E-03
(PID.TID 0000.0001) %MON pe_b_mean                    =  -6.8287765855937E-01
(PID.TID 0000.0001) %MON ke_max                       =   5.7500415482111E-06
(PID.TID 0000.0001) %MON ke_mean                      =   8.4878971929260E-09
(PID.TID 0000.0001) %MON ke_vol                       =   4.6182879527976E+12
(PID.TID 0000.0001) // =======================================================
(PID.TID 0000.0001) // End MONITOR dynamic field statistics
(PID.TID 0000.0001) // =======================================================
(PID.TID 0000.0001) // =======================================================
(PID.TID 0000.0001) // Begin OBCS MONITOR field statistics
(PID.TID 0000.0001) // =======================================================
(PID.TID 0000.0001) %MON obc_N_vVel_max               =  -1.8036748945324E-07
(PID.TID 0000.0001) %MON obc_N_vVel_min               =  -1.8036748945325E-07
(PID.TID 0000.0001) %MON obc_N_vVel_mean              =  -1.8036748945325E-07
(PID.TID 0000.0001) %MON obc_N_vVel_sd                =  -6.8788670935272E-28
(PID.TID 0000.0001) %MON obc_N_vVel_Int               =  -1.1904254303914E+01
(PID.TID 0000.0001) // =======================================================
(PID.TID 0000.0001) // End OBCS MONITOR field statistics
(PID.TID 0000.0001) // =======================================================
 cg2d: Sum(rhs),rhsMax =   3.01229779834752E+00  4.53052616593000E+02
(PID.TID 0000.0001)      cg2d_init_res =   2.21331297813050E-06
(PID.TID 0000.0001)      cg2d_iters(min,last) =      -1      66
(PID.TID 0000.0001)      cg2d_last_res =   9.05457211918612E-12
(PID.TID 0000.0001) // =======================================================
(PID.TID 0000.0001) // Begin MONITOR dynamic field statistics
(PID.TID 0000.0001) // =======================================================
(PID.TID 0000.0001) %MON time_tsnumber                =                   252
(PID.TID 0000.0001) %MON time_secondsf                =   2.5200000000000E+04
(PID.TID 0000.0001) %MON dynstat_eta_max              =   5.7961919510803E+00
(PID.TID 0000.0001) %MON dynstat_eta_min              =  -1.4177460818663E+01
(PID.TID 0000.0001) %MON dynstat_eta_mean             =  -2.5272766657383E+00
(PID.TID 0000.0001) %MON dynstat_eta_sd               =   4.9420427444960E+00
(PID.TID 0000.0001) %MON dynstat_eta_del2             =   1.9058058892611E-01
(PID.TID 0000.0001) %MON dynstat_uvel_max             =   2.1608448797288E-03
(PID.TID 0000.0001) %MON dynstat_uvel_min             =  -3.6228296858614E-03
(PID.TID 0000.0001) %MON dynstat_uvel_mean            =  -9.6705475603861E-10
(PID.TID 0000.0001) %MON dynstat_uvel_sd              =   8.5703882162188E-05
(PID.TID 0000.0001) %MON dynstat_uvel_del2            =   3.4977242412715E-07
(PID.TID 0000.0001) %MON dynstat_vvel_max             =   3.3261834171174E-03
(PID.TID 0000.0001) %MON dynstat_vvel_min             =  -1.7433957340582E-03
(PID.TID 0000.0001) %MON dynstat_vvel_mean            =  -1.5242914356034E-07
(PID.TID 0000.0001) %MON dynstat_vvel_sd              =   9.9097915607908E-05
(PID.TID 0000.0001) %MON dynstat_vvel_del2            =   3.9699898028799E-07
(PID.TID 0000.0001) %MON dynstat_wvel_max             =   2.0852251705211E-04
(PID.TID 0000.0001) %MON dynstat_wvel_min             =  -1.1091479881521E-04
(PID.TID 0000.0001) %MON dynstat_wvel_mean            =   2.5676999458206E-10
(PID.TID 0000.0001) %MON dynstat_wvel_sd              =   2.0627043149558E-05
(PID.TID 0000.0001) %MON dynstat_wvel_del2            =   1.0535851475324E-07
(PID.TID 0000.0001) %MON dynstat_theta_max            =   1.2000000000000E+00
(PID.TID 0000.0001) %MON dynstat_theta_min            =  -1.0000000000000E+00
(PID.TID 0000.0001) %MON dynstat_theta_mean           =   5.6545381499558E-01
(PID.TID 0000.0001) %MON dynstat_theta_sd             =   8.4905775868069E-01
(PID.TID 0000.0001) %MON dynstat_theta_del2           =   1.2707544209255E-06
(PID.TID 0000.0001) %MON dynstat_salt_max             =   3.4700000000000E+01
(PID.TID 0000.0001) %MON dynstat_salt_min             =   3.4000000000000E+01
(PID.TID 0000.0001) %MON dynstat_salt_mean            =   3.4498094914225E+01
(PID.TID 0000.0001) %MON dynstat_salt_sd              =   2.7015520479369E-01
(PID.TID 0000.0001) %MON dynstat_salt_del2            =   4.0300103588766E-07
(PID.TID 0000.0001) %MON advcfl_uvel_max              =   3.6228296858614E-04
(PID.TID 0000.0001) %MON advcfl_vvel_max              =   3.3261834171174E-04
(PID.TID 0000.0001) %MON advcfl_wvel_max              =   1.0426125852605E-03
(PID.TID 0000.0001) %MON advcfl_W_hf_max              =   1.0426125852605E-03
(PID.TID 0000.0001) %MON pe_b_mean                    =  -6.8287714698854E-01
(PID.TID 0000.0001) %MON ke_max                       =   5.7421936147088E-06
(PID.TID 0000.0001) %MON ke_mean                      =   8.5135879759477E-09
(PID.TID 0000.0001) %MON ke_vol                       =   4.6182879647417E+12
(PID.TID 0000.0001) // =======================================================
(PID.TID 0000.0001) // End MONITOR dynamic field statistics
(PID.TID 0000.0001) // =======================================================
(PID.TID 0000.0001) // =======================================================
(PID.TID 0000.0001) // Begin OBCS MONITOR field statistics
(PID.TID 0000.0001) // =======================================================
(PID.TID 0000.0001) %MON obc_N_vVel_max               =  -1.6813352838135E-07
(PID.TID 0000.0001) %MON obc_N_vVel_min               =  -1.6813352838135E-07
(PID.TID 0000.0001) %MON obc_N_vVel_mean              =  -1.6813352838135E-07
(PID.TID 0000.0001) %MON obc_N_vVel_sd                =  -1.1359597035183E-28
(PID.TID 0000.0001) %MON obc_N_vVel_Int               =  -1.1096812873169E+01
(PID.TID 0000.0001) // =======================================================
(PID.TID 0000.0001) // End OBCS MONITOR field statistics
(PID.TID 0000.0001) // =======================================================
 cg2d: Sum(rhs),rhsMax =   3.01229549523901E+00  4.53052607638116E+02
(PID.TID 0000.0001)      cg2d_init_res =   2.20170618011430E-06
(PID.TID 0000.0001)      cg2d_iters(min,last) =      -1      66
(PID.TID 0000.0001)      cg2d_last_res =   8.85306167672248E-12
(PID.TID 0000.0001) // =======================================================
(PID.TID 0000.0001) // Begin MONITOR dynamic field statistics
(PID.TID 0000.0001) // =======================================================
(PID.TID 0000.0001) %MON time_tsnumber                =                   253
(PID.TID 0000.0001) %MON time_secondsf                =   2.5300000000000E+04
(PID.TID 0000.0001) %MON dynstat_eta_max              =   5.7961945923352E+00
(PID.TID 0000.0001) %MON dynstat_eta_min              =  -1.4177455102468E+01
(PID.TID 0000.0001) %MON dynstat_eta_mean             =  -2.5272746835085E+00
(PID.TID 0000.0001) %MON dynstat_eta_sd               =   4.9420421069239E+00
(PID.TID 0000.0001) %MON dynstat_eta_del2             =   1.9058058890137E-01
(PID.TID 0000.0001) %MON dynstat_uvel_max             =   2.1512339833780E-03
(PID.TID 0000.0001) %MON dynstat_uvel_min             =  -3.6236961727472E-03
(PID.TID 0000.0001) %MON dynstat_uvel_mean            =  -1.0090109759736E-09
(PID.TID 0000.0001) %MON dynstat_uvel_sd              =   8.5934682483884E-05
(PID.TID 0000.0001) %MON dynstat_uvel_del2            =   3.4894556820247E-07
(PID.TID 0000.0001) %MON dynstat_vvel_max             =   3.3266305181412E-03
(PID.TID 0000.0001) %MON dynstat_vvel_min             =  -1.7324631782785E-03
(PID.TID 0000.0001) %MON dynstat_vvel_mean            =  -1.3647867929070E-07
(PID.TID 0000.0001) %MON dynstat_vvel_sd              =   9.9162847312736E-05
(PID.TID 0000.0001) %MON dynstat_vvel_del2            =   3.9586878153341E-07
(PID.TID 0000.0001) %MON dynstat_wvel_max             =   2.0813120282806E-04
(PID.TID 0000.0001) %MON dynstat_wvel_min             =  -1.1014209352780E-04
(PID.TID 0000.0001) %MON dynstat_wvel_mean            =   2.6686333126602E-10
(PID.TID 0000.0001) %MON dynstat_wvel_sd              =   2.0555583704151E-05
(PID.TID 0000.0001) %MON dynstat_wvel_del2            =   1.0473678237181E-07
(PID.TID 0000.0001) %MON dynstat_theta_max            =   1.2000000000000E+00
(PID.TID 0000.0001) %MON dynstat_theta_min            =  -1.0000000000000E+00
(PID.TID 0000.0001) %MON dynstat_theta_mean           =   5.6545361234657E-01
(PID.TID 0000.0001) %MON dynstat_theta_sd             =   8.4905771575452E-01
(PID.TID 0000.0001) %MON dynstat_theta_del2           =   1.2663016302486E-06
(PID.TID 0000.0001) %MON dynstat_salt_max             =   3.4700000000000E+01
(PID.TID 0000.0001) %MON dynstat_salt_min             =   3.4000000000000E+01
(PID.TID 0000.0001) %MON dynstat_salt_mean            =   3.4498094833865E+01
(PID.TID 0000.0001) %MON dynstat_salt_sd              =   2.7015519276168E-01
(PID.TID 0000.0001) %MON dynstat_salt_del2            =   4.0173545170538E-07
(PID.TID 0000.0001) %MON advcfl_uvel_max              =   3.6236961727472E-04
(PID.TID 0000.0001) %MON advcfl_vvel_max              =   3.3266305181412E-04
(PID.TID 0000.0001) %MON advcfl_wvel_max              =   1.0406560141403E-03
(PID.TID 0000.0001) %MON advcfl_W_hf_max              =   1.0406560141403E-03
(PID.TID 0000.0001) %MON pe_b_mean                    =  -6.8287663880798E-01
(PID.TID 0000.0001) %MON ke_max                       =   5.7341312652332E-06
(PID.TID 0000.0001) %MON ke_mean                      =   8.5394569673862E-09
(PID.TID 0000.0001) %MON ke_vol                       =   4.6182879766055E+12
(PID.TID 0000.0001) // =======================================================
(PID.TID 0000.0001) // End MONITOR dynamic field statistics
(PID.TID 0000.0001) // =======================================================
(PID.TID 0000.0001) // =======================================================
(PID.TID 0000.0001) // Begin OBCS MONITOR field statistics
(PID.TID 0000.0001) // =======================================================
(PID.TID 0000.0001) %MON obc_N_vVel_max               =  -1.5452532338938E-07
(PID.TID 0000.0001) %MON obc_N_vVel_min               =  -1.5452532338938E-07
(PID.TID 0000.0001) %MON obc_N_vVel_mean              =  -1.5452532338938E-07
(PID.TID 0000.0001) %MON obc_N_vVel_sd                =  -9.1507865005637E-28
(PID.TID 0000.0001) %MON obc_N_vVel_Int               =  -1.0198671343699E+01
(PID.TID 0000.0001) // =======================================================
(PID.TID 0000.0001) // End OBCS MONITOR field statistics
(PID.TID 0000.0001) // =======================================================
 cg2d: Sum(rhs),rhsMax =   3.01229321259344E+00  4.53052598464141E+02
(PID.TID 0000.0001)      cg2d_init_res =   2.18959362096736E-06
(PID.TID 0000.0001)      cg2d_iters(min,last) =      -1      66
(PID.TID 0000.0001)      cg2d_last_res =   8.67318538779712E-12
(PID.TID 0000.0001) // =======================================================
(PID.TID 0000.0001) // Begin MONITOR dynamic field statistics
(PID.TID 0000.0001) // =======================================================
(PID.TID 0000.0001) %MON time_tsnumber                =                   254
(PID.TID 0000.0001) %MON time_secondsf                =   2.5400000000000E+04
(PID.TID 0000.0001) %MON dynstat_eta_max              =   5.7961972081219E+00
(PID.TID 0000.0001) %MON dynstat_eta_min              =  -1.4177449426652E+01
(PID.TID 0000.0001) %MON dynstat_eta_mean             =  -2.5272727172247E+00
(PID.TID 0000.0001) %MON dynstat_eta_sd               =   4.9420414749069E+00
(PID.TID 0000.0001) %MON dynstat_eta_del2             =   1.9058058887474E-01
(PID.TID 0000.0001) %MON dynstat_uvel_max             =   2.1415237762596E-03
(PID.TID 0000.0001) %MON dynstat_uvel_min             =  -3.6244688237645E-03
(PID.TID 0000.0001) %MON dynstat_uvel_mean            =  -1.0230368002111E-09
(PID.TID 0000.0001) %MON dynstat_uvel_sd              =   8.6167609255614E-05
(PID.TID 0000.0001) %MON dynstat_uvel_del2            =   3.4812125525742E-07
(PID.TID 0000.0001) %MON dynstat_vvel_max             =   3.3270007126616E-03
(PID.TID 0000.0001) %MON dynstat_vvel_min             =  -1.7214653479414E-03
(PID.TID 0000.0001) %MON dynstat_vvel_mean            =  -1.2022761172657E-07
(PID.TID 0000.0001) %MON dynstat_vvel_sd              =   9.9228571662199E-05
(PID.TID 0000.0001) %MON dynstat_vvel_del2            =   3.9476071374097E-07
(PID.TID 0000.0001) %MON dynstat_wvel_max             =   2.0773428684356E-04
(PID.TID 0000.0001) %MON dynstat_wvel_min             =  -1.0691972121730E-04
(PID.TID 0000.0001) %MON dynstat_wvel_mean            =   2.7185614650117E-10
(PID.TID 0000.0001) %MON dynstat_wvel_sd              =   2.0486089232436E-05
(PID.TID 0000.0001) %MON dynstat_wvel_del2            =   1.0414771662077E-07
(PID.TID 0000.0001) %MON dynstat_theta_max            =   1.2000000000000E+00
(PID.TID 0000.0001) %MON dynstat_theta_min            =  -1.0000000000000E+00
(PID.TID 0000.0001) %MON dynstat_theta_mean           =   5.6545340969414E-01
(PID.TID 0000.0001) %MON dynstat_theta_sd             =   8.4905767289788E-01
(PID.TID 0000.0001) %MON dynstat_theta_del2           =   1.2618610677699E-06
(PID.TID 0000.0001) %MON dynstat_salt_max             =   3.4700000000000E+01
(PID.TID 0000.0001) %MON dynstat_salt_min             =   3.4000000000000E+01
(PID.TID 0000.0001) %MON dynstat_salt_mean            =   3.4498094753503E+01
(PID.TID 0000.0001) %MON dynstat_salt_sd              =   2.7015518074992E-01
(PID.TID 0000.0001) %MON dynstat_salt_del2            =   4.0047453631104E-07
(PID.TID 0000.0001) %MON advcfl_uvel_max              =   3.6244688237645E-04
(PID.TID 0000.0001) %MON advcfl_vvel_max              =   3.3270007126616E-04
(PID.TID 0000.0001) %MON advcfl_wvel_max              =   1.0386714342178E-03
(PID.TID 0000.0001) %MON advcfl_W_hf_max              =   1.0386714342178E-03
(PID.TID 0000.0001) %MON pe_b_mean                    =  -6.8287613405510E-01
(PID.TID 0000.0001) %MON ke_max                       =   5.7258582230190E-06
(PID.TID 0000.0001) %MON ke_mean                      =   8.5656410946306E-09
(PID.TID 0000.0001) %MON ke_vol                       =   4.6182879883800E+12
(PID.TID 0000.0001) // =======================================================
(PID.TID 0000.0001) // End MONITOR dynamic field statistics
(PID.TID 0000.0001) // =======================================================
(PID.TID 0000.0001) // =======================================================
(PID.TID 0000.0001) // Begin OBCS MONITOR field statistics
(PID.TID 0000.0001) // =======================================================
(PID.TID 0000.0001) %MON obc_N_vVel_max               =  -1.4010188933409E-07
(PID.TID 0000.0001) %MON obc_N_vVel_min               =  -1.4010188933409E-07
(PID.TID 0000.0001) %MON obc_N_vVel_mean              =  -1.4010188933409E-07
(PID.TID 0000.0001) %MON obc_N_vVel_sd                =  -3.6603146002255E-28
(PID.TID 0000.0001) %MON obc_N_vVel_Int               =  -9.2467246960502E+00
(PID.TID 0000.0001) // =======================================================
(PID.TID 0000.0001) // End OBCS MONITOR field statistics
(PID.TID 0000.0001) // =======================================================
 cg2d: Sum(rhs),rhsMax =   3.01229095064647E+00  4.53052589092055E+02
(PID.TID 0000.0001)      cg2d_init_res =   2.17782798209874E-06
(PID.TID 0000.0001)      cg2d_iters(min,last) =      -1      66
(PID.TID 0000.0001)      cg2d_last_res =   8.55620982859908E-12
(PID.TID 0000.0001) // =======================================================
(PID.TID 0000.0001) // Begin MONITOR dynamic field statistics
(PID.TID 0000.0001) // =======================================================
(PID.TID 0000.0001) %MON time_tsnumber                =                   255
(PID.TID 0000.0001) %MON time_secondsf                =   2.5500000000000E+04
(PID.TID 0000.0001) %MON dynstat_eta_max              =   5.7961997991863E+00
(PID.TID 0000.0001) %MON dynstat_eta_min              =  -1.4177443789831E+01
(PID.TID 0000.0001) %MON dynstat_eta_mean             =  -2.5272707672018E+00
(PID.TID 0000.0001) %MON dynstat_eta_sd               =   4.9420408480946E+00
(PID.TID 0000.0001) %MON dynstat_eta_del2             =   1.9058058884738E-01
(PID.TID 0000.0001) %MON dynstat_uvel_max             =   2.1317152528706E-03
(PID.TID 0000.0001) %MON dynstat_uvel_min             =  -3.6251482509417E-03
(PID.TID 0000.0001) %MON dynstat_uvel_mean            =  -1.0118689184138E-09
(PID.TID 0000.0001) %MON dynstat_uvel_sd              =   8.6402665508584E-05
(PID.TID 0000.0001) %MON dynstat_uvel_del2            =   3.4729957513205E-07
(PID.TID 0000.0001) %MON dynstat_vvel_max             =   3.3272943153273E-03
(PID.TID 0000.0001) %MON dynstat_vvel_min             =  -1.7104039707991E-03
(PID.TID 0000.0001) %MON dynstat_vvel_mean            =  -1.0420887843372E-07
(PID.TID 0000.0001) %MON dynstat_vvel_sd              =   9.9296331657012E-05
(PID.TID 0000.0001) %MON dynstat_vvel_del2            =   3.9369632413553E-07
(PID.TID 0000.0001) %MON dynstat_wvel_max             =   2.0733184625700E-04
(PID.TID 0000.0001) %MON dynstat_wvel_min             =  -1.0385581668230E-04
(PID.TID 0000.0001) %MON dynstat_wvel_mean            =   2.7210371696636E-10
(PID.TID 0000.0001) %MON dynstat_wvel_sd              =   2.0421384649713E-05
(PID.TID 0000.0001) %MON dynstat_wvel_del2            =   1.0362849339358E-07
(PID.TID 0000.0001) %MON dynstat_theta_max            =   1.2000000000000E+00
(PID.TID 0000.0001) %MON dynstat_theta_min            =  -1.0000000000000E+00
(PID.TID 0000.0001) %MON dynstat_theta_mean           =   5.6545320703782E-01
(PID.TID 0000.0001) %MON dynstat_theta_sd             =   8.4905763008854E-01
(PID.TID 0000.0001) %MON dynstat_theta_del2           =   1.2574155804180E-06
(PID.TID 0000.0001) %MON dynstat_salt_max             =   3.4700000000000E+01
(PID.TID 0000.0001) %MON dynstat_salt_min             =   3.4000000000000E+01
(PID.TID 0000.0001) %MON dynstat_salt_mean            =   3.4498094673140E+01
(PID.TID 0000.0001) %MON dynstat_salt_sd              =   2.7015516875108E-01
(PID.TID 0000.0001) %MON dynstat_salt_del2            =   3.9921274053259E-07
(PID.TID 0000.0001) %MON advcfl_uvel_max              =   3.6251482509417E-04
(PID.TID 0000.0001) %MON advcfl_vvel_max              =   3.3272943153273E-04
(PID.TID 0000.0001) %MON advcfl_wvel_max              =   1.0366592312850E-03
(PID.TID 0000.0001) %MON advcfl_W_hf_max              =   1.0366592312850E-03
(PID.TID 0000.0001) %MON pe_b_mean                    =  -6.8287563265630E-01
(PID.TID 0000.0001) %MON ke_max                       =   5.7173782477237E-06
(PID.TID 0000.0001) %MON ke_mean                      =   8.5922657188199E-09
(PID.TID 0000.0001) %MON ke_vol                       =   4.6182880000597E+12
(PID.TID 0000.0001) // =======================================================
(PID.TID 0000.0001) // End MONITOR dynamic field statistics
(PID.TID 0000.0001) // =======================================================
(PID.TID 0000.0001) // =======================================================
(PID.TID 0000.0001) // Begin OBCS MONITOR field statistics
(PID.TID 0000.0001) // =======================================================
(PID.TID 0000.0001) %MON obc_N_vVel_max               =  -1.2538868220728E-07
(PID.TID 0000.0001) %MON obc_N_vVel_min               =  -1.2538868220728E-07
(PID.TID 0000.0001) %MON obc_N_vVel_mean              =  -1.2538868220728E-07
(PID.TID 0000.0001) %MON obc_N_vVel_sd                =  -2.3981371518719E-28
(PID.TID 0000.0001) %MON obc_N_vVel_Int               =  -8.2756530256804E+00
(PID.TID 0000.0001) // =======================================================
(PID.TID 0000.0001) // End OBCS MONITOR field statistics
(PID.TID 0000.0001) // =======================================================
 cg2d: Sum(rhs),rhsMax =   3.01228870899283E+00  4.53052579545396E+02
(PID.TID 0000.0001)      cg2d_init_res =   2.16719463351538E-06
(PID.TID 0000.0001)      cg2d_iters(min,last) =      -1      66
(PID.TID 0000.0001)      cg2d_last_res =   8.49791879305310E-12
(PID.TID 0000.0001) // =======================================================
(PID.TID 0000.0001) // Begin MONITOR dynamic field statistics
(PID.TID 0000.0001) // =======================================================
(PID.TID 0000.0001) %MON time_tsnumber                =                   256
(PID.TID 0000.0001) %MON time_secondsf                =   2.5600000000000E+04
(PID.TID 0000.0001) %MON dynstat_eta_max              =   5.7962023670334E+00
(PID.TID 0000.0001) %MON dynstat_eta_min              =  -1.4177438189687E+01
(PID.TID 0000.0001) %MON dynstat_eta_mean             =  -2.5272688332309E+00
(PID.TID 0000.0001) %MON dynstat_eta_sd               =   4.9420402260204E+00
(PID.TID 0000.0001) %MON dynstat_eta_del2             =   1.9058058882066E-01
(PID.TID 0000.0001) %MON dynstat_uvel_max             =   2.1218094082371E-03
(PID.TID 0000.0001) %MON dynstat_uvel_min             =  -3.6257350648079E-03
(PID.TID 0000.0001) %MON dynstat_uvel_mean            =  -9.7884292028150E-10
(PID.TID 0000.0001) %MON dynstat_uvel_sd              =   8.6639853645591E-05
(PID.TID 0000.0001) %MON dynstat_uvel_del2            =   3.4648061344976E-07
(PID.TID 0000.0001) %MON dynstat_vvel_max             =   3.3275116762130E-03
(PID.TID 0000.0001) %MON dynstat_vvel_min             =  -1.6992807136749E-03
(PID.TID 0000.0001) %MON dynstat_vvel_mean            =  -8.8889350843970E-08
(PID.TID 0000.0001) %MON dynstat_vvel_sd              =   9.9367090097298E-05
(PID.TID 0000.0001) %MON dynstat_vvel_del2            =   3.9269168391257E-07
(PID.TID 0000.0001) %MON dynstat_wvel_max             =   2.0692395670192E-04
(PID.TID 0000.0001) %MON dynstat_wvel_min             =  -1.0786463338105E-04
(PID.TID 0000.0001) %MON dynstat_wvel_mean            =   2.6808319227545E-10
(PID.TID 0000.0001) %MON dynstat_wvel_sd              =   2.0363663380131E-05
(PID.TID 0000.0001) %MON dynstat_wvel_del2            =   1.0320709696058E-07
(PID.TID 0000.0001) %MON dynstat_theta_max            =   1.2000000000000E+00
(PID.TID 0000.0001) %MON dynstat_theta_min            =  -1.0000000000000E+00
(PID.TID 0000.0001) %MON dynstat_theta_mean           =   5.6545300437779E-01
(PID.TID 0000.0001) %MON dynstat_theta_sd             =   8.4905758727245E-01
(PID.TID 0000.0001) %MON dynstat_theta_del2           =   1.2529539773242E-06
(PID.TID 0000.0001) %MON dynstat_salt_max             =   3.4700000000000E+01
(PID.TID 0000.0001) %MON dynstat_salt_min             =   3.4000000000000E+01
(PID.TID 0000.0001) %MON dynstat_salt_mean            =   3.4498094592774E+01
(PID.TID 0000.0001) %MON dynstat_salt_sd              =   2.7015515674807E-01
(PID.TID 0000.0001) %MON dynstat_salt_del2            =   3.9794642937550E-07
(PID.TID 0000.0001) %MON advcfl_uvel_max              =   3.6257350648079E-04
(PID.TID 0000.0001) %MON advcfl_vvel_max              =   3.3275116762130E-04
(PID.TID 0000.0001) %MON advcfl_wvel_max              =   1.0346197835096E-03
(PID.TID 0000.0001) %MON advcfl_W_hf_max              =   1.0346197835096E-03
(PID.TID 0000.0001) %MON pe_b_mean                    =  -6.8287513444479E-01
(PID.TID 0000.0001) %MON ke_max                       =   5.7086951424657E-06
(PID.TID 0000.0001) %MON ke_mean                      =   8.6194286280729E-09
(PID.TID 0000.0001) %MON ke_vol                       =   4.6182880116428E+12
(PID.TID 0000.0001) // =======================================================
(PID.TID 0000.0001) // End MONITOR dynamic field statistics
(PID.TID 0000.0001) // =======================================================
(PID.TID 0000.0001) // =======================================================
(PID.TID 0000.0001) // Begin OBCS MONITOR field statistics
(PID.TID 0000.0001) // =======================================================
(PID.TID 0000.0001) %MON obc_N_vVel_max               =  -1.1086353151764E-07
(PID.TID 0000.0001) %MON obc_N_vVel_min               =  -1.1086353151765E-07
(PID.TID 0000.0001) %MON obc_N_vVel_mean              =  -1.1086353151764E-07
(PID.TID 0000.0001) %MON obc_N_vVel_sd                =   3.2585376757489E-14
(PID.TID 0000.0001) %MON obc_N_vVel_Int               =  -7.3169930801643E+00
(PID.TID 0000.0001) // =======================================================
(PID.TID 0000.0001) // End OBCS MONITOR field statistics
(PID.TID 0000.0001) // =======================================================
 cg2d: Sum(rhs),rhsMax =   3.01228648666403E+00  4.53052569849018E+02
(PID.TID 0000.0001)      cg2d_init_res =   2.15825543685768E-06
(PID.TID 0000.0001)      cg2d_iters(min,last) =      -1      66
(PID.TID 0000.0001)      cg2d_last_res =   8.45467400226172E-12
(PID.TID 0000.0001) // =======================================================
(PID.TID 0000.0001) // Begin MONITOR dynamic field statistics
(PID.TID 0000.0001) // =======================================================
(PID.TID 0000.0001) %MON time_tsnumber                =                   257
(PID.TID 0000.0001) %MON time_secondsf                =   2.5700000000000E+04
(PID.TID 0000.0001) %MON dynstat_eta_max              =   5.7962049138227E+00
(PID.TID 0000.0001) %MON dynstat_eta_min              =  -1.4177432623181E+01
(PID.TID 0000.0001) %MON dynstat_eta_mean             =  -2.5272669146382E+00
(PID.TID 0000.0001) %MON dynstat_eta_sd               =   4.9420396081277E+00
(PID.TID 0000.0001) %MON dynstat_eta_del2             =   1.9058058879603E-01
(PID.TID 0000.0001) %MON dynstat_uvel_max             =   2.1118072381814E-03
(PID.TID 0000.0001) %MON dynstat_uvel_min             =  -3.6262298766419E-03
(PID.TID 0000.0001) %MON dynstat_uvel_mean            =  -9.2770695635911E-10
(PID.TID 0000.0001) %MON dynstat_uvel_sd              =   8.6879175176940E-05
(PID.TID 0000.0001) %MON dynstat_uvel_del2            =   3.4566445239113E-07
(PID.TID 0000.0001) %MON dynstat_vvel_max             =   3.3276531845541E-03
(PID.TID 0000.0001) %MON dynstat_vvel_min             =  -1.6880975756877E-03
(PID.TID 0000.0001) %MON dynstat_vvel_mean            =  -7.4660905072616E-08
(PID.TID 0000.0001) %MON dynstat_vvel_sd              =   9.9441411642935E-05
(PID.TID 0000.0001) %MON dynstat_vvel_del2            =   3.9175538207498E-07
(PID.TID 0000.0001) %MON dynstat_wvel_max             =   2.0651069157260E-04
(PID.TID 0000.0001) %MON dynstat_wvel_min             =  -1.1022793007960E-04
(PID.TID 0000.0001) %MON dynstat_wvel_mean            =   2.6036434753854E-10
(PID.TID 0000.0001) %MON dynstat_wvel_sd              =   2.0314208452834E-05
(PID.TID 0000.0001) %MON dynstat_wvel_del2            =   1.0289859927864E-07
(PID.TID 0000.0001) %MON dynstat_theta_max            =   1.2000000000000E+00
(PID.TID 0000.0001) %MON dynstat_theta_min            =  -1.0000000000000E+00
(PID.TID 0000.0001) %MON dynstat_theta_mean           =   5.6545280171405E-01
(PID.TID 0000.0001) %MON dynstat_theta_sd             =   8.4905754440263E-01
(PID.TID 0000.0001) %MON dynstat_theta_del2           =   1.2484703542454E-06
(PID.TID 0000.0001) %MON dynstat_salt_max             =   3.4700000000000E+01
(PID.TID 0000.0001) %MON dynstat_salt_min             =   3.4000000000000E+01
(PID.TID 0000.0001) %MON dynstat_salt_mean            =   3.4498094512406E+01
(PID.TID 0000.0001) %MON dynstat_salt_sd              =   2.7015514472612E-01
(PID.TID 0000.0001) %MON dynstat_salt_del2            =   3.9667378039562E-07
(PID.TID 0000.0001) %MON advcfl_uvel_max              =   3.6262298766419E-04
(PID.TID 0000.0001) %MON advcfl_vvel_max              =   3.3276531845541E-04
(PID.TID 0000.0001) %MON advcfl_wvel_max              =   1.0325534578630E-03
(PID.TID 0000.0001) %MON advcfl_W_hf_max              =   1.0325534578630E-03
(PID.TID 0000.0001) %MON pe_b_mean                    =  -6.8287463917440E-01
(PID.TID 0000.0001) %MON ke_max                       =   5.6998127584283E-06
(PID.TID 0000.0001) %MON ke_mean                      =   8.6471882215379E-09
(PID.TID 0000.0001) %MON ke_vol                       =   4.6182880231306E+12
(PID.TID 0000.0001) // =======================================================
(PID.TID 0000.0001) // End MONITOR dynamic field statistics
(PID.TID 0000.0001) // =======================================================
(PID.TID 0000.0001) // =======================================================
(PID.TID 0000.0001) // Begin OBCS MONITOR field statistics
(PID.TID 0000.0001) // =======================================================
(PID.TID 0000.0001) %MON obc_N_vVel_max               =  -9.6945530904497E-08
(PID.TID 0000.0001) %MON obc_N_vVel_min               =  -9.6945530904500E-08
(PID.TID 0000.0001) %MON obc_N_vVel_mean              =  -9.6945530904497E-08
(PID.TID 0000.0001) %MON obc_N_vVel_sd                =   2.6763514379481E-14
(PID.TID 0000.0001) %MON obc_N_vVel_Int               =  -6.3984050396968E+00
(PID.TID 0000.0001) // =======================================================
(PID.TID 0000.0001) // End OBCS MONITOR field statistics
(PID.TID 0000.0001) // =======================================================
 cg2d: Sum(rhs),rhsMax =   3.01228428222450E+00  4.53052560027806E+02
(PID.TID 0000.0001)      cg2d_init_res =   2.15131886249846E-06
(PID.TID 0000.0001)      cg2d_iters(min,last) =      -1      66
(PID.TID 0000.0001)      cg2d_last_res =   8.38962323749153E-12
(PID.TID 0000.0001) // =======================================================
(PID.TID 0000.0001) // Begin MONITOR dynamic field statistics
(PID.TID 0000.0001) // =======================================================
(PID.TID 0000.0001) %MON time_tsnumber                =                   258
(PID.TID 0000.0001) %MON time_secondsf                =   2.5800000000000E+04
(PID.TID 0000.0001) %MON dynstat_eta_max              =   5.7962074422079E+00
(PID.TID 0000.0001) %MON dynstat_eta_min              =  -1.4177427086632E+01
(PID.TID 0000.0001) %MON dynstat_eta_mean             =  -2.5272650103580E+00
(PID.TID 0000.0001) %MON dynstat_eta_sd               =   4.9420389937958E+00
(PID.TID 0000.0001) %MON dynstat_eta_del2             =   1.9058058877474E-01
(PID.TID 0000.0001) %MON dynstat_uvel_max             =   2.1017097394331E-03
(PID.TID 0000.0001) %MON dynstat_uvel_min             =  -3.6266332986321E-03
(PID.TID 0000.0001) %MON dynstat_uvel_mean            =  -8.6244652909120E-10
(PID.TID 0000.0001) %MON dynstat_uvel_sd              =   8.7120630676532E-05
(PID.TID 0000.0001) %MON dynstat_uvel_del2            =   3.4485117240573E-07
(PID.TID 0000.0001) %MON dynstat_vvel_max             =   3.3277192700085E-03
(PID.TID 0000.0001) %MON dynstat_vvel_min             =  -1.6768560361040E-03
(PID.TID 0000.0001) %MON dynstat_vvel_mean            =  -6.1835106919153E-08
(PID.TID 0000.0001) %MON dynstat_vvel_sd              =   9.9519398808666E-05
(PID.TID 0000.0001) %MON dynstat_vvel_del2            =   3.9088752330111E-07
(PID.TID 0000.0001) %MON dynstat_wvel_max             =   2.0609212204535E-04
(PID.TID 0000.0001) %MON dynstat_wvel_min             =  -1.1071947334405E-04
(PID.TID 0000.0001) %MON dynstat_wvel_mean            =   2.4958371944225E-10
(PID.TID 0000.0001) %MON dynstat_wvel_sd              =   2.0273238171618E-05
(PID.TID 0000.0001) %MON dynstat_wvel_del2            =   1.0270324974089E-07
(PID.TID 0000.0001) %MON dynstat_theta_max            =   1.2000000000000E+00
(PID.TID 0000.0001) %MON dynstat_theta_min            =  -1.0000000000000E+00
(PID.TID 0000.0001) %MON dynstat_theta_mean           =   5.6545259904645E-01
(PID.TID 0000.0001) %MON dynstat_theta_sd             =   8.4905750147125E-01
(PID.TID 0000.0001) %MON dynstat_theta_del2           =   1.2439667847466E-06
(PID.TID 0000.0001) %MON dynstat_salt_max             =   3.4700000000000E+01
(PID.TID 0000.0001) %MON dynstat_salt_min             =   3.4000000000000E+01
(PID.TID 0000.0001) %MON dynstat_salt_mean            =   3.4498094432037E+01
(PID.TID 0000.0001) %MON dynstat_salt_sd              =   2.7015513268250E-01
(PID.TID 0000.0001) %MON dynstat_salt_del2            =   3.9539545488908E-07
(PID.TID 0000.0001) %MON advcfl_uvel_max              =   3.6266332986321E-04
(PID.TID 0000.0001) %MON advcfl_vvel_max              =   3.3277192700085E-04
(PID.TID 0000.0001) %MON advcfl_wvel_max              =   1.0304606102268E-03
(PID.TID 0000.0001) %MON advcfl_W_hf_max              =   1.0304606102268E-03
(PID.TID 0000.0001) %MON pe_b_mean                    =  -6.8287414653665E-01
(PID.TID 0000.0001) %MON ke_max                       =   5.6907349965663E-06
(PID.TID 0000.0001) %MON ke_mean                      =   8.6755570199719E-09
(PID.TID 0000.0001) %MON ke_vol                       =   4.6182880345270E+12
(PID.TID 0000.0001) // =======================================================
(PID.TID 0000.0001) // End MONITOR dynamic field statistics
(PID.TID 0000.0001) // =======================================================
(PID.TID 0000.0001) // =======================================================
(PID.TID 0000.0001) // Begin OBCS MONITOR field statistics
(PID.TID 0000.0001) // =======================================================
(PID.TID 0000.0001) %MON obc_N_vVel_max               =  -8.3987230329609E-08
(PID.TID 0000.0001) %MON obc_N_vVel_min               =  -8.3987230329612E-08
(PID.TID 0000.0001) %MON obc_N_vVel_mean              =  -8.3987230329609E-08
(PID.TID 0000.0001) %MON obc_N_vVel_sd                =   1.7359287594669E-14
(PID.TID 0000.0001) %MON obc_N_vVel_Int               =  -5.5431572017542E+00
(PID.TID 0000.0001) // =======================================================
(PID.TID 0000.0001) // End OBCS MONITOR field statistics
(PID.TID 0000.0001) // =======================================================
 cg2d: Sum(rhs),rhsMax =   3.01228209386816E+00  4.53052550105764E+02
(PID.TID 0000.0001)      cg2d_init_res =   2.14637756278350E-06
(PID.TID 0000.0001)      cg2d_iters(min,last) =      -1      66
(PID.TID 0000.0001)      cg2d_last_res =   8.28099329855975E-12
(PID.TID 0000.0001) // =======================================================
(PID.TID 0000.0001) // Begin MONITOR dynamic field statistics
(PID.TID 0000.0001) // =======================================================
(PID.TID 0000.0001) %MON time_tsnumber                =                   259
(PID.TID 0000.0001) %MON time_secondsf                =   2.5900000000000E+04
(PID.TID 0000.0001) %MON dynstat_eta_max              =   5.7962099552342E+00
(PID.TID 0000.0001) %MON dynstat_eta_min              =  -1.4177421575936E+01
(PID.TID 0000.0001) %MON dynstat_eta_mean             =  -2.5272631190091E+00
(PID.TID 0000.0001) %MON dynstat_eta_sd               =   4.9420383823728E+00
(PID.TID 0000.0001) %MON dynstat_eta_del2             =   1.9058058875849E-01
(PID.TID 0000.0001) %MON dynstat_uvel_max             =   2.0915179107188E-03
(PID.TID 0000.0001) %MON dynstat_uvel_min             =  -3.6269459417559E-03
(PID.TID 0000.0001) %MON dynstat_uvel_mean            =  -7.8710475343732E-10
(PID.TID 0000.0001) %MON dynstat_uvel_sd              =   8.7364219688340E-05
(PID.TID 0000.0001) %MON dynstat_uvel_del2            =   3.4404085383830E-07
(PID.TID 0000.0001) %MON dynstat_vvel_max             =   3.3277104038607E-03
(PID.TID 0000.0001) %MON dynstat_vvel_min             =  -1.6655574910693E-03
(PID.TID 0000.0001) %MON dynstat_vvel_mean            =  -5.0641210169876E-08
(PID.TID 0000.0001) %MON dynstat_vvel_sd              =   9.9600690577806E-05
(PID.TID 0000.0001) %MON dynstat_vvel_del2            =   3.9007987296857E-07
(PID.TID 0000.0001) %MON dynstat_wvel_max             =   2.0566831773687E-04
(PID.TID 0000.0001) %MON dynstat_wvel_min             =  -1.0931396003100E-04
(PID.TID 0000.0001) %MON dynstat_wvel_mean            =   2.3641393408773E-10
(PID.TID 0000.0001) %MON dynstat_wvel_sd              =   2.0239898697746E-05
(PID.TID 0000.0001) %MON dynstat_wvel_del2            =   1.0260670012497E-07
(PID.TID 0000.0001) %MON dynstat_theta_max            =   1.2000000000000E+00
(PID.TID 0000.0001) %MON dynstat_theta_min            =  -1.0000000000000E+00
(PID.TID 0000.0001) %MON dynstat_theta_mean           =   5.6545239637432E-01
(PID.TID 0000.0001) %MON dynstat_theta_sd             =   8.4905745851911E-01
(PID.TID 0000.0001) %MON dynstat_theta_del2           =   1.2394524142305E-06
(PID.TID 0000.0001) %MON dynstat_salt_max             =   3.4700000000000E+01
(PID.TID 0000.0001) %MON dynstat_salt_min             =   3.4000000000000E+01
(PID.TID 0000.0001) %MON dynstat_salt_mean            =   3.4498094351665E+01
(PID.TID 0000.0001) %MON dynstat_salt_sd              =   2.7015512063033E-01
(PID.TID 0000.0001) %MON dynstat_salt_del2            =   3.9411436100504E-07
(PID.TID 0000.0001) %MON advcfl_uvel_max              =   3.6269459417559E-04
(PID.TID 0000.0001) %MON advcfl_vvel_max              =   3.3277104038607E-04
(PID.TID 0000.0001) %MON advcfl_wvel_max              =   1.0283415886843E-03
(PID.TID 0000.0001) %MON advcfl_W_hf_max              =   1.0283415886843E-03
(PID.TID 0000.0001) %MON pe_b_mean                    =  -6.8287365617738E-01
(PID.TID 0000.0001) %MON ke_max                       =   5.6814658102289E-06
(PID.TID 0000.0001) %MON ke_mean                      =   8.7045013601012E-09
(PID.TID 0000.0001) %MON ke_vol                       =   4.6182880458385E+12
(PID.TID 0000.0001) // =======================================================
(PID.TID 0000.0001) // End MONITOR dynamic field statistics
(PID.TID 0000.0001) // =======================================================
(PID.TID 0000.0001) // =======================================================
(PID.TID 0000.0001) // Begin OBCS MONITOR field statistics
(PID.TID 0000.0001) // =======================================================
(PID.TID 0000.0001) %MON obc_N_vVel_max               =  -7.2269593038844E-08
(PID.TID 0000.0001) %MON obc_N_vVel_min               =  -7.2269593038845E-08
(PID.TID 0000.0001) %MON obc_N_vVel_mean              =  -7.2269593038845E-08
(PID.TID 0000.0001) %MON obc_N_vVel_sd                =  -2.6663498596470E-28
(PID.TID 0000.0001) %MON obc_N_vVel_Int               =  -4.7697931405638E+00
(PID.TID 0000.0001) // =======================================================
(PID.TID 0000.0001) // End OBCS MONITOR field statistics
(PID.TID 0000.0001) // =======================================================
 cg2d: Sum(rhs),rhsMax =   3.01227991953111E+00  4.53052540104855E+02
(PID.TID 0000.0001)      cg2d_init_res =   2.14315925615984E-06
(PID.TID 0000.0001)      cg2d_iters(min,last) =      -1      66
(PID.TID 0000.0001)      cg2d_last_res =   8.15940462818914E-12
(PID.TID 0000.0001) // =======================================================
(PID.TID 0000.0001) // Begin MONITOR dynamic field statistics
(PID.TID 0000.0001) // =======================================================
(PID.TID 0000.0001) %MON time_tsnumber                =                   260
(PID.TID 0000.0001) %MON time_secondsf                =   2.6000000000000E+04
(PID.TID 0000.0001) %MON dynstat_eta_max              =   5.7962124561865E+00
(PID.TID 0000.0001) %MON dynstat_eta_min              =  -1.4177416086818E+01
(PID.TID 0000.0001) %MON dynstat_eta_mean             =  -2.5272612389823E+00
(PID.TID 0000.0001) %MON dynstat_eta_sd               =   4.9420377731949E+00
(PID.TID 0000.0001) %MON dynstat_eta_del2             =   1.9058058874841E-01
(PID.TID 0000.0001) %MON dynstat_uvel_max             =   2.0812327531186E-03
(PID.TID 0000.0001) %MON dynstat_uvel_min             =  -3.6271684166120E-03
(PID.TID 0000.0001) %MON dynstat_uvel_mean            =  -7.0566682176501E-10
(PID.TID 0000.0001) %MON dynstat_uvel_sd              =   8.7609940641764E-05
(PID.TID 0000.0001) %MON dynstat_uvel_del2            =   3.4323357775450E-07
(PID.TID 0000.0001) %MON dynstat_vvel_max             =   3.3276270965379E-03
(PID.TID 0000.0001) %MON dynstat_vvel_min             =  -1.6542032743025E-03
(PID.TID 0000.0001) %MON dynstat_vvel_mean            =  -4.1227296159223E-08
(PID.TID 0000.0001) %MON dynstat_vvel_sd              =   9.9684520709624E-05
(PID.TID 0000.0001) %MON dynstat_vvel_del2            =   3.8931708200827E-07
(PID.TID 0000.0001) %MON dynstat_wvel_max             =   2.0523934681110E-04
(PID.TID 0000.0001) %MON dynstat_wvel_min             =  -1.0601987321324E-04
(PID.TID 0000.0001) %MON dynstat_wvel_mean            =   2.2153777134866E-10
(PID.TID 0000.0001) %MON dynstat_wvel_sd              =   2.0212399453019E-05
(PID.TID 0000.0001) %MON dynstat_wvel_del2            =   1.0258227320700E-07
(PID.TID 0000.0001) %MON dynstat_theta_max            =   1.2000000000000E+00
(PID.TID 0000.0001) %MON dynstat_theta_min            =  -1.0000000000000E+00
(PID.TID 0000.0001) %MON dynstat_theta_mean           =   5.6545219369720E-01
(PID.TID 0000.0001) %MON dynstat_theta_sd             =   8.4905741557459E-01
(PID.TID 0000.0001) %MON dynstat_theta_del2           =   1.2349419257633E-06
(PID.TID 0000.0001) %MON dynstat_salt_max             =   3.4700000000000E+01
(PID.TID 0000.0001) %MON dynstat_salt_min             =   3.4000000000000E+01
(PID.TID 0000.0001) %MON dynstat_salt_mean            =   3.4498094271291E+01
(PID.TID 0000.0001) %MON dynstat_salt_sd              =   2.7015510857872E-01
(PID.TID 0000.0001) %MON dynstat_salt_del2            =   3.9283518390752E-07
(PID.TID 0000.0001) %MON advcfl_uvel_max              =   3.6271684166120E-04
(PID.TID 0000.0001) %MON advcfl_vvel_max              =   3.3276270965379E-04
(PID.TID 0000.0001) %MON advcfl_wvel_max              =   1.0261967340555E-03
(PID.TID 0000.0001) %MON advcfl_W_hf_max              =   1.0261967340555E-03
(PID.TID 0000.0001) %MON pe_b_mean                    =  -6.8287316771532E-01
(PID.TID 0000.0001) %MON ke_max                       =   5.6720092009106E-06
(PID.TID 0000.0001) %MON ke_mean                      =   8.7339470139660E-09
(PID.TID 0000.0001) %MON ke_vol                       =   4.6182880570731E+12
(PID.TID 0000.0001) // =======================================================
(PID.TID 0000.0001) // End MONITOR dynamic field statistics
(PID.TID 0000.0001) // =======================================================
(PID.TID 0000.0001) // =======================================================
(PID.TID 0000.0001) // Begin OBCS MONITOR field statistics
(PID.TID 0000.0001) // =======================================================
(PID.TID 0000.0001) %MON obc_N_vVel_max               =  -6.2000269807183E-08
(PID.TID 0000.0001) %MON obc_N_vVel_min               =  -6.2000269807184E-08
(PID.TID 0000.0001) %MON obc_N_vVel_mean              =  -6.2000269807183E-08
(PID.TID 0000.0001) %MON obc_N_vVel_sd                =   6.7641653219609E-15
(PID.TID 0000.0001) %MON obc_N_vVel_Int               =  -4.0920178072741E+00
(PID.TID 0000.0001) // =======================================================
(PID.TID 0000.0001) // End OBCS MONITOR field statistics
(PID.TID 0000.0001) // =======================================================
 cg2d: Sum(rhs),rhsMax =   3.01227775698869E+00  4.53052530044146E+02
(PID.TID 0000.0001)      cg2d_init_res =   2.14113760148625E-06
(PID.TID 0000.0001)      cg2d_iters(min,last) =      -1      66
(PID.TID 0000.0001)      cg2d_last_res =   8.05441599490268E-12
(PID.TID 0000.0001) // =======================================================
(PID.TID 0000.0001) // Begin MONITOR dynamic field statistics
(PID.TID 0000.0001) // =======================================================
(PID.TID 0000.0001) %MON time_tsnumber                =                   261
(PID.TID 0000.0001) %MON time_secondsf                =   2.6100000000000E+04
(PID.TID 0000.0001) %MON dynstat_eta_max              =   5.7962149485254E+00
(PID.TID 0000.0001) %MON dynstat_eta_min              =  -1.4177410613848E+01
(PID.TID 0000.0001) %MON dynstat_eta_mean             =  -2.5272593685175E+00
(PID.TID 0000.0001) %MON dynstat_eta_sd               =   4.9420371656124E+00
(PID.TID 0000.0001) %MON dynstat_eta_del2             =   1.9058058874542E-01
(PID.TID 0000.0001) %MON dynstat_uvel_max             =   2.0708552693964E-03
(PID.TID 0000.0001) %MON dynstat_uvel_min             =  -3.6273013331509E-03
(PID.TID 0000.0001) %MON dynstat_uvel_mean            =  -6.2192377923583E-10
(PID.TID 0000.0001) %MON dynstat_uvel_sd              =   8.7857790782989E-05
(PID.TID 0000.0001) %MON dynstat_uvel_del2            =   3.4242942713520E-07
(PID.TID 0000.0001) %MON dynstat_vvel_max             =   3.3274698948222E-03
(PID.TID 0000.0001) %MON dynstat_vvel_min             =  -1.6427945354636E-03
(PID.TID 0000.0001) %MON dynstat_vvel_mean            =  -3.3664205096928E-08
(PID.TID 0000.0001) %MON dynstat_vvel_sd              =   9.9769826972911E-05
(PID.TID 0000.0001) %MON dynstat_vvel_del2            =   3.8857880939531E-07
(PID.TID 0000.0001) %MON dynstat_wvel_max             =   2.0480527638817E-04
(PID.TID 0000.0001) %MON dynstat_wvel_min             =  -1.0087989078794E-04
(PID.TID 0000.0001) %MON dynstat_wvel_mean            =   2.0561789593036E-10
(PID.TID 0000.0001) %MON dynstat_wvel_sd              =   2.0188269837035E-05
(PID.TID 0000.0001) %MON dynstat_wvel_del2            =   1.0259486347921E-07
(PID.TID 0000.0001) %MON dynstat_theta_max            =   1.2000000000000E+00
(PID.TID 0000.0001) %MON dynstat_theta_min            =  -1.0000000000000E+00
(PID.TID 0000.0001) %MON dynstat_theta_mean           =   5.6545199101448E-01
(PID.TID 0000.0001) %MON dynstat_theta_sd             =   8.4905737263056E-01
(PID.TID 0000.0001) %MON dynstat_theta_del2           =   1.2304538235831E-06
(PID.TID 0000.0001) %MON dynstat_salt_max             =   3.4700000000000E+01
(PID.TID 0000.0001) %MON dynstat_salt_min             =   3.4000000000000E+01
(PID.TID 0000.0001) %MON dynstat_salt_mean            =   3.4498094190914E+01
(PID.TID 0000.0001) %MON dynstat_salt_sd              =   2.7015509652522E-01
(PID.TID 0000.0001) %MON dynstat_salt_del2            =   3.9156377350933E-07
(PID.TID 0000.0001) %MON advcfl_uvel_max              =   3.6273013331509E-04
(PID.TID 0000.0001) %MON advcfl_vvel_max              =   3.3274698948222E-04
(PID.TID 0000.0001) %MON advcfl_wvel_max              =   1.0240263819409E-03
(PID.TID 0000.0001) %MON advcfl_W_hf_max              =   1.0240263819409E-03
(PID.TID 0000.0001) %MON pe_b_mean                    =  -6.8287268075728E-01
(PID.TID 0000.0001) %MON ke_max                       =   5.6623692130892E-06
(PID.TID 0000.0001) %MON ke_mean                      =   8.7637899012348E-09
(PID.TID 0000.0001) %MON ke_vol                       =   4.6182880682404E+12
(PID.TID 0000.0001) // =======================================================
(PID.TID 0000.0001) // End MONITOR dynamic field statistics
(PID.TID 0000.0001) // =======================================================
(PID.TID 0000.0001) // =======================================================
(PID.TID 0000.0001) // Begin OBCS MONITOR field statistics
(PID.TID 0000.0001) // =======================================================
(PID.TID 0000.0001) %MON obc_N_vVel_max               =  -5.3314574709903E-08
(PID.TID 0000.0001) %MON obc_N_vVel_min               =  -5.3314574709904E-08
(PID.TID 0000.0001) %MON obc_N_vVel_mean              =  -5.3314574709904E-08
(PID.TID 0000.0001) %MON obc_N_vVel_sd                =  -3.8654184355830E-29
(PID.TID 0000.0001) %MON obc_N_vVel_Int               =  -3.5187619308536E+00
(PID.TID 0000.0001) // =======================================================
(PID.TID 0000.0001) // End OBCS MONITOR field statistics
(PID.TID 0000.0001) // =======================================================
 cg2d: Sum(rhs),rhsMax =   3.01227560394610E+00  4.53052519939116E+02
(PID.TID 0000.0001)      cg2d_init_res =   2.13961688008709E-06
(PID.TID 0000.0001)      cg2d_iters(min,last) =      -1      66
(PID.TID 0000.0001)      cg2d_last_res =   7.96724438075105E-12
(PID.TID 0000.0001) // =======================================================
(PID.TID 0000.0001) // Begin MONITOR dynamic field statistics
(PID.TID 0000.0001) // =======================================================
(PID.TID 0000.0001) %MON time_tsnumber                =                   262
(PID.TID 0000.0001) %MON time_secondsf                =   2.6200000000000E+04
(PID.TID 0000.0001) %MON dynstat_eta_max              =   5.7962174357095E+00
(PID.TID 0000.0001) %MON dynstat_eta_min              =  -1.4177405154157E+01
(PID.TID 0000.0001) %MON dynstat_eta_mean             =  -2.5272575057757E+00
(PID.TID 0000.0001) %MON dynstat_eta_sd               =   4.9420365590142E+00
(PID.TID 0000.0001) %MON dynstat_eta_del2             =   1.9058058875060E-01
(PID.TID 0000.0001) %MON dynstat_uvel_max             =   2.0603864642261E-03
(PID.TID 0000.0001) %MON dynstat_uvel_min             =  -3.6273453006321E-03
(PID.TID 0000.0001) %MON dynstat_uvel_mean            =  -5.3934274587123E-10
(PID.TID 0000.0001) %MON dynstat_uvel_sd              =   8.8107766150510E-05
(PID.TID 0000.0001) %MON dynstat_uvel_del2            =   3.4162848699143E-07
(PID.TID 0000.0001) %MON dynstat_vvel_max             =   3.3272393766683E-03
(PID.TID 0000.0001) %MON dynstat_vvel_min             =  -1.6392048625029E-03
(PID.TID 0000.0001) %MON dynstat_vvel_mean            =  -2.7951996607888E-08
(PID.TID 0000.0001) %MON dynstat_vvel_sd              =   9.9855396328220E-05
(PID.TID 0000.0001) %MON dynstat_vvel_del2            =   3.8784244163185E-07
(PID.TID 0000.0001) %MON dynstat_wvel_max             =   2.0436617229352E-04
(PID.TID 0000.0001) %MON dynstat_wvel_min             =  -9.9167225968942E-05
(PID.TID 0000.0001) %MON dynstat_wvel_mean            =   1.8928055476490E-10
(PID.TID 0000.0001) %MON dynstat_wvel_sd              =   2.0164698980794E-05
(PID.TID 0000.0001) %MON dynstat_wvel_del2            =   1.0260581596353E-07
(PID.TID 0000.0001) %MON dynstat_theta_max            =   1.2000000000000E+00
(PID.TID 0000.0001) %MON dynstat_theta_min            =  -1.0000000000000E+00
(PID.TID 0000.0001) %MON dynstat_theta_mean           =   5.6545178832504E-01
(PID.TID 0000.0001) %MON dynstat_theta_sd             =   8.4905732968891E-01
(PID.TID 0000.0001) %MON dynstat_theta_del2           =   1.2260078862046E-06
(PID.TID 0000.0001) %MON dynstat_salt_max             =   3.4700000000000E+01
(PID.TID 0000.0001) %MON dynstat_salt_min             =   3.4000000000000E+01
(PID.TID 0000.0001) %MON dynstat_salt_mean            =   3.4498094110534E+01
(PID.TID 0000.0001) %MON dynstat_salt_sd              =   2.7015508447061E-01
(PID.TID 0000.0001) %MON dynstat_salt_del2            =   3.9030649970645E-07
(PID.TID 0000.0001) %MON advcfl_uvel_max              =   3.6273453006321E-04
(PID.TID 0000.0001) %MON advcfl_vvel_max              =   3.3272393766683E-04
(PID.TID 0000.0001) %MON advcfl_wvel_max              =   1.0218308614676E-03
(PID.TID 0000.0001) %MON advcfl_W_hf_max              =   1.0218308614676E-03
(PID.TID 0000.0001) %MON pe_b_mean                    =  -6.8287219491204E-01
(PID.TID 0000.0001) %MON ke_max                       =   5.6525499253224E-06
(PID.TID 0000.0001) %MON ke_mean                      =   8.7939104437416E-09
(PID.TID 0000.0001) %MON ke_vol                       =   4.6182880793510E+12
(PID.TID 0000.0001) // =======================================================
(PID.TID 0000.0001) // End MONITOR dynamic field statistics
(PID.TID 0000.0001) // =======================================================
(PID.TID 0000.0001) // =======================================================
(PID.TID 0000.0001) // Begin OBCS MONITOR field statistics
(PID.TID 0000.0001) // =======================================================
(PID.TID 0000.0001) %MON obc_N_vVel_max               =  -4.6279864030858E-08
(PID.TID 0000.0001) %MON obc_N_vVel_min               =  -4.6279864030859E-08
(PID.TID 0000.0001) %MON obc_N_vVel_mean              =  -4.6279864030859E-08
(PID.TID 0000.0001) %MON obc_N_vVel_sd                =  -1.6211091602292E-28
(PID.TID 0000.0001) %MON obc_N_vVel_Int               =  -3.0544710260367E+00
(PID.TID 0000.0001) // =======================================================
(PID.TID 0000.0001) // End OBCS MONITOR field statistics
(PID.TID 0000.0001) // =======================================================
 cg2d: Sum(rhs),rhsMax =   3.01227345813397E+00  4.53052509801130E+02
(PID.TID 0000.0001)      cg2d_init_res =   2.13786076783592E-06
(PID.TID 0000.0001)      cg2d_iters(min,last) =      -1      66
(PID.TID 0000.0001)      cg2d_last_res =   7.89753191086506E-12
(PID.TID 0000.0001) // =======================================================
(PID.TID 0000.0001) // Begin MONITOR dynamic field statistics
(PID.TID 0000.0001) // =======================================================
(PID.TID 0000.0001) %MON time_tsnumber                =                   263
(PID.TID 0000.0001) %MON time_secondsf                =   2.6300000000000E+04
(PID.TID 0000.0001) %MON dynstat_eta_max              =   5.7962199210783E+00
(PID.TID 0000.0001) %MON dynstat_eta_min              =  -1.4177399703806E+01
(PID.TID 0000.0001) %MON dynstat_eta_mean             =  -2.5272556489165E+00
(PID.TID 0000.0001) %MON dynstat_eta_sd               =   4.9420359528346E+00
(PID.TID 0000.0001) %MON dynstat_eta_del2             =   1.9058058876446E-01
(PID.TID 0000.0001) %MON dynstat_uvel_max             =   2.0498273439955E-03
(PID.TID 0000.0001) %MON dynstat_uvel_min             =  -3.6273009270713E-03
(PID.TID 0000.0001) %MON dynstat_uvel_mean            =  -4.6096711372173E-10
(PID.TID 0000.0001) %MON dynstat_uvel_sd              =   8.8359861516844E-05
(PID.TID 0000.0001) %MON dynstat_uvel_del2            =   3.4083084453908E-07
(PID.TID 0000.0001) %MON dynstat_vvel_max             =   3.3269361453074E-03
(PID.TID 0000.0001) %MON dynstat_vvel_min             =  -1.6410062764951E-03
(PID.TID 0000.0001) %MON dynstat_vvel_mean            =  -2.4028455414523E-08
(PID.TID 0000.0001) %MON dynstat_vvel_sd              =   9.9940025263077E-05
(PID.TID 0000.0001) %MON dynstat_vvel_del2            =   3.8708603261306E-07
(PID.TID 0000.0001) %MON dynstat_wvel_max             =   2.0392209878983E-04
(PID.TID 0000.0001) %MON dynstat_wvel_min             =  -1.0229550492424E-04
(PID.TID 0000.0001) %MON dynstat_wvel_mean            =   1.7310096598229E-10
(PID.TID 0000.0001) %MON dynstat_wvel_sd              =   2.0138908825076E-05
(PID.TID 0000.0001) %MON dynstat_wvel_del2            =   1.0257803226140E-07
(PID.TID 0000.0001) %MON dynstat_theta_max            =   1.2000000000000E+00
(PID.TID 0000.0001) %MON dynstat_theta_min            =  -1.0000000000000E+00
(PID.TID 0000.0001) %MON dynstat_theta_mean           =   5.6545158562820E-01
(PID.TID 0000.0001) %MON dynstat_theta_sd             =   8.4905728673132E-01
(PID.TID 0000.0001) %MON dynstat_theta_del2           =   1.2216226114863E-06
(PID.TID 0000.0001) %MON dynstat_salt_max             =   3.4700000000000E+01
(PID.TID 0000.0001) %MON dynstat_salt_min             =   3.4000000000000E+01
(PID.TID 0000.0001) %MON dynstat_salt_mean            =   3.4498094030151E+01
(PID.TID 0000.0001) %MON dynstat_salt_sd              =   2.7015507240874E-01
(PID.TID 0000.0001) %MON dynstat_salt_del2            =   3.8906916447727E-07
(PID.TID 0000.0001) %MON advcfl_uvel_max              =   3.6273009270713E-04
(PID.TID 0000.0001) %MON advcfl_vvel_max              =   3.3269361453074E-04
(PID.TID 0000.0001) %MON advcfl_wvel_max              =   1.0196104939491E-03
(PID.TID 0000.0001) %MON advcfl_W_hf_max              =   1.0196104939491E-03
(PID.TID 0000.0001) %MON pe_b_mean                    =  -6.8287170980468E-01
(PID.TID 0000.0001) %MON ke_max                       =   5.6425554407477E-06
(PID.TID 0000.0001) %MON ke_mean                      =   8.8241895107281E-09
(PID.TID 0000.0001) %MON ke_vol                       =   4.6182880904157E+12
(PID.TID 0000.0001) // =======================================================
(PID.TID 0000.0001) // End MONITOR dynamic field statistics
(PID.TID 0000.0001) // =======================================================
(PID.TID 0000.0001) // =======================================================
(PID.TID 0000.0001) // Begin OBCS MONITOR field statistics
(PID.TID 0000.0001) // =======================================================
(PID.TID 0000.0001) %MON obc_N_vVel_max               =  -4.0901382344697E-08
(PID.TID 0000.0001) %MON obc_N_vVel_min               =  -4.0901382344697E-08
(PID.TID 0000.0001) %MON obc_N_vVel_mean              =  -4.0901382344697E-08
(PID.TID 0000.0001) %MON obc_N_vVel_sd                =  -2.6229625098599E-29
(PID.TID 0000.0001) %MON obc_N_vVel_Int               =  -2.6994912347500E+00
(PID.TID 0000.0001) // =======================================================
(PID.TID 0000.0001) // End OBCS MONITOR field statistics
(PID.TID 0000.0001) // =======================================================
 cg2d: Sum(rhs),rhsMax =   3.01227131737732E+00  4.53052499637040E+02
(PID.TID 0000.0001)      cg2d_init_res =   2.13517876725143E-06
(PID.TID 0000.0001)      cg2d_iters(min,last) =      -1      66
(PID.TID 0000.0001)      cg2d_last_res =   7.84845109634905E-12
(PID.TID 0000.0001) // =======================================================
(PID.TID 0000.0001) // Begin MONITOR dynamic field statistics
(PID.TID 0000.0001) // =======================================================
(PID.TID 0000.0001) %MON time_tsnumber                =                   264
(PID.TID 0000.0001) %MON time_secondsf                =   2.6400000000000E+04
(PID.TID 0000.0001) %MON dynstat_eta_max              =   5.7962224077845E+00
(PID.TID 0000.0001) %MON dynstat_eta_min              =  -1.4177394259207E+01
(PID.TID 0000.0001) %MON dynstat_eta_mean             =  -2.5272537961532E+00
(PID.TID 0000.0001) %MON dynstat_eta_sd               =   4.9420353465680E+00
(PID.TID 0000.0001) %MON dynstat_eta_del2             =   1.9058058878703E-01
(PID.TID 0000.0001) %MON dynstat_uvel_max             =   2.0391789160250E-03
(PID.TID 0000.0001) %MON dynstat_uvel_min             =  -3.6271688188576E-03
(PID.TID 0000.0001) %MON dynstat_uvel_mean            =  -3.8933455229873E-10
(PID.TID 0000.0001) %MON dynstat_uvel_sd              =   8.8614070369228E-05
(PID.TID 0000.0001) %MON dynstat_uvel_del2            =   3.4003659005934E-07
(PID.TID 0000.0001) %MON dynstat_vvel_max             =   3.3265608232380E-03
(PID.TID 0000.0001) %MON dynstat_vvel_min             =  -1.6428247581182E-03
(PID.TID 0000.0001) %MON dynstat_vvel_mean            =  -2.1778959457930E-08
(PID.TID 0000.0001) %MON dynstat_vvel_sd              =   1.0002267412021E-04
(PID.TID 0000.0001) %MON dynstat_vvel_del2            =   3.8629106969934E-07
(PID.TID 0000.0001) %MON dynstat_wvel_max             =   2.0347311835906E-04
(PID.TID 0000.0001) %MON dynstat_wvel_min             =  -1.0602791285069E-04
(PID.TID 0000.0001) %MON dynstat_wvel_mean            =   1.5758487734918E-10
(PID.TID 0000.0001) %MON dynstat_wvel_sd              =   2.0108509498269E-05
(PID.TID 0000.0001) %MON dynstat_wvel_del2            =   1.0248060299553E-07
(PID.TID 0000.0001) %MON dynstat_theta_max            =   1.2000000000000E+00
(PID.TID 0000.0001) %MON dynstat_theta_min            =  -1.0000000000000E+00
(PID.TID 0000.0001) %MON dynstat_theta_mean           =   5.6545138292312E-01
(PID.TID 0000.0001) %MON dynstat_theta_sd             =   8.4905724378120E-01
(PID.TID 0000.0001) %MON dynstat_theta_del2           =   1.2173125615800E-06
(PID.TID 0000.0001) %MON dynstat_salt_max             =   3.4700000000000E+01
(PID.TID 0000.0001) %MON dynstat_salt_min             =   3.4000000000000E+01
(PID.TID 0000.0001) %MON dynstat_salt_mean            =   3.4498093949765E+01
(PID.TID 0000.0001) %MON dynstat_salt_sd              =   2.7015506034709E-01
(PID.TID 0000.0001) %MON dynstat_salt_del2            =   3.8785637795586E-07
(PID.TID 0000.0001) %MON advcfl_uvel_max              =   3.6271688188576E-04
(PID.TID 0000.0001) %MON advcfl_vvel_max              =   3.3265608232380E-04
(PID.TID 0000.0001) %MON advcfl_wvel_max              =   1.0173655917953E-03
(PID.TID 0000.0001) %MON advcfl_W_hf_max              =   1.0173655917953E-03
(PID.TID 0000.0001) %MON pe_b_mean                    =  -6.8287122508584E-01
(PID.TID 0000.0001) %MON ke_max                       =   5.6323898765224E-06
(PID.TID 0000.0001) %MON ke_mean                      =   8.8545238606213E-09
(PID.TID 0000.0001) %MON ke_vol                       =   4.6182881014454E+12
(PID.TID 0000.0001) // =======================================================
(PID.TID 0000.0001) // End MONITOR dynamic field statistics
(PID.TID 0000.0001) // =======================================================
(PID.TID 0000.0001) // =======================================================
(PID.TID 0000.0001) // Begin OBCS MONITOR field statistics
(PID.TID 0000.0001) // =======================================================
(PID.TID 0000.0001) %MON obc_N_vVel_max               =  -3.7129205789666E-08
(PID.TID 0000.0001) %MON obc_N_vVel_min               =  -3.7129205789666E-08
(PID.TID 0000.0001) %MON obc_N_vVel_mean              =  -3.7129205789666E-08
(PID.TID 0000.0001) %MON obc_N_vVel_sd                =   4.7207330545683E-15
(PID.TID 0000.0001) %MON obc_N_vVel_Int               =  -2.4505275821179E+00
(PID.TID 0000.0001) // =======================================================
(PID.TID 0000.0001) // End OBCS MONITOR field statistics
(PID.TID 0000.0001) // =======================================================
 cg2d: Sum(rhs),rhsMax =   3.01226917965984E+00  4.53052489449128E+02
(PID.TID 0000.0001)      cg2d_init_res =   2.13101399338330E-06
(PID.TID 0000.0001)      cg2d_iters(min,last) =      -1      66
(PID.TID 0000.0001)      cg2d_last_res =   7.80639143593966E-12
(PID.TID 0000.0001) // =======================================================
(PID.TID 0000.0001) // Begin MONITOR dynamic field statistics
(PID.TID 0000.0001) // =======================================================
(PID.TID 0000.0001) %MON time_tsnumber                =                   265
(PID.TID 0000.0001) %MON time_secondsf                =   2.6500000000000E+04
(PID.TID 0000.0001) %MON dynstat_eta_max              =   5.7962248987386E+00
(PID.TID 0000.0001) %MON dynstat_eta_min              =  -1.4177388817225E+01
(PID.TID 0000.0001) %MON dynstat_eta_mean             =  -2.5272519458070E+00
(PID.TID 0000.0001) %MON dynstat_eta_sd               =   4.9420347397808E+00
(PID.TID 0000.0001) %MON dynstat_eta_del2             =   1.9058058881819E-01
(PID.TID 0000.0001) %MON dynstat_uvel_max             =   2.0284421885481E-03
(PID.TID 0000.0001) %MON dynstat_uvel_min             =  -3.6269495803847E-03
(PID.TID 0000.0001) %MON dynstat_uvel_mean            =  -3.2642041559714E-10
(PID.TID 0000.0001) %MON dynstat_uvel_sd              =   8.8870384841532E-05
(PID.TID 0000.0001) %MON dynstat_uvel_del2            =   3.3924581556522E-07
(PID.TID 0000.0001) %MON dynstat_vvel_max             =   3.3261140472822E-03
(PID.TID 0000.0001) %MON dynstat_vvel_min             =  -1.6446565567865E-03
(PID.TID 0000.0001) %MON dynstat_vvel_mean            =  -2.1047227056132E-08
(PID.TID 0000.0001) %MON dynstat_vvel_sd              =   1.0010259573853E-04
(PID.TID 0000.0001) %MON dynstat_vvel_del2            =   3.8544472109496E-07
(PID.TID 0000.0001) %MON dynstat_wvel_max             =   2.0301929208076E-04
(PID.TID 0000.0001) %MON dynstat_wvel_min             =  -1.0748093909408E-04
(PID.TID 0000.0001) %MON dynstat_wvel_mean            =   1.4315860663945E-10
(PID.TID 0000.0001) %MON dynstat_wvel_sd              =   2.0071793013734E-05
(PID.TID 0000.0001) %MON dynstat_wvel_del2            =   1.0229243399207E-07
(PID.TID 0000.0001) %MON dynstat_theta_max            =   1.2000000000000E+00
(PID.TID 0000.0001) %MON dynstat_theta_min            =  -1.0000000000000E+00
(PID.TID 0000.0001) %MON dynstat_theta_mean           =   5.6545118020904E-01
(PID.TID 0000.0001) %MON dynstat_theta_sd             =   8.4905720085107E-01
(PID.TID 0000.0001) %MON dynstat_theta_del2           =   1.2130863538618E-06
(PID.TID 0000.0001) %MON dynstat_salt_max             =   3.4700000000000E+01
(PID.TID 0000.0001) %MON dynstat_salt_min             =   3.4000000000000E+01
(PID.TID 0000.0001) %MON dynstat_salt_mean            =   3.4498093869374E+01
(PID.TID 0000.0001) %MON dynstat_salt_sd              =   2.7015504828969E-01
(PID.TID 0000.0001) %MON dynstat_salt_del2            =   3.8667086132628E-07
(PID.TID 0000.0001) %MON advcfl_uvel_max              =   3.6269495803847E-04
(PID.TID 0000.0001) %MON advcfl_vvel_max              =   3.3261140472822E-04
(PID.TID 0000.0001) %MON advcfl_wvel_max              =   1.0150964604038E-03
(PID.TID 0000.0001) %MON advcfl_W_hf_max              =   1.0150964604038E-03
(PID.TID 0000.0001) %MON pe_b_mean                    =  -6.8287074044092E-01
(PID.TID 0000.0001) %MON ke_max                       =   5.6220573560165E-06
(PID.TID 0000.0001) %MON ke_mean                      =   8.8848390928051E-09
(PID.TID 0000.0001) %MON ke_vol                       =   4.6182881124508E+12
(PID.TID 0000.0001) // =======================================================
(PID.TID 0000.0001) // End MONITOR dynamic field statistics
(PID.TID 0000.0001) // =======================================================
(PID.TID 0000.0001) // =======================================================
(PID.TID 0000.0001) // Begin OBCS MONITOR field statistics
(PID.TID 0000.0001) // =======================================================
(PID.TID 0000.0001) %MON obc_N_vVel_max               =  -3.4866863169512E-08
(PID.TID 0000.0001) %MON obc_N_vVel_min               =  -3.4866863169513E-08
(PID.TID 0000.0001) %MON obc_N_vVel_mean              =  -3.4866863169513E-08
(PID.TID 0000.0001) %MON obc_N_vVel_sd                =  -4.0626336618882E-29
(PID.TID 0000.0001) %MON obc_N_vVel_Int               =  -2.3012129691878E+00
(PID.TID 0000.0001) // =======================================================
(PID.TID 0000.0001) // End OBCS MONITOR field statistics
(PID.TID 0000.0001) // =======================================================
 cg2d: Sum(rhs),rhsMax =   3.01226704317357E+00  4.53052479235105E+02
(PID.TID 0000.0001)      cg2d_init_res =   2.12502271766070E-06
(PID.TID 0000.0001)      cg2d_iters(min,last) =      -1      66
(PID.TID 0000.0001)      cg2d_last_res =   7.75118069841457E-12
(PID.TID 0000.0001) // =======================================================
(PID.TID 0000.0001) // Begin MONITOR dynamic field statistics
(PID.TID 0000.0001) // =======================================================
(PID.TID 0000.0001) %MON time_tsnumber                =                   266
(PID.TID 0000.0001) %MON time_secondsf                =   2.6600000000000E+04
(PID.TID 0000.0001) %MON dynstat_eta_max              =   5.7962273965239E+00
(PID.TID 0000.0001) %MON dynstat_eta_min              =  -1.4177383375281E+01
(PID.TID 0000.0001) %MON dynstat_eta_mean             =  -2.5272500963481E+00
(PID.TID 0000.0001) %MON dynstat_eta_sd               =   4.9420341321163E+00
(PID.TID 0000.0001) %MON dynstat_eta_del2             =   1.9058058885768E-01
(PID.TID 0000.0001) %MON dynstat_uvel_max             =   2.0176181699334E-03
(PID.TID 0000.0001) %MON dynstat_uvel_min             =  -3.6266438135721E-03
(PID.TID 0000.0001) %MON dynstat_uvel_mean            =  -2.7364334767349E-10
(PID.TID 0000.0001) %MON dynstat_uvel_sd              =   8.9128795701982E-05
(PID.TID 0000.0001) %MON dynstat_uvel_del2            =   3.3845861411866E-07
(PID.TID 0000.0001) %MON dynstat_vvel_max             =   3.3255964634300E-03
(PID.TID 0000.0001) %MON dynstat_vvel_min             =  -1.6464978531463E-03
(PID.TID 0000.0001) %MON dynstat_vvel_mean            =  -2.1646413550193E-08
(PID.TID 0000.0001) %MON dynstat_vvel_sd              =   1.0017942187120E-04
(PID.TID 0000.0001) %MON dynstat_vvel_del2            =   3.8454128300319E-07
(PID.TID 0000.0001) %MON dynstat_wvel_max             =   2.0256068061826E-04
(PID.TID 0000.0001) %MON dynstat_wvel_min             =  -1.0657039760893E-04
(PID.TID 0000.0001) %MON dynstat_wvel_mean            =   1.3015865245776E-10
(PID.TID 0000.0001) %MON dynstat_wvel_sd              =   2.0027929329664E-05
(PID.TID 0000.0001) %MON dynstat_wvel_del2            =   1.0200449613271E-07
(PID.TID 0000.0001) %MON dynstat_theta_max            =   1.2000000000000E+00
(PID.TID 0000.0001) %MON dynstat_theta_min            =  -1.0000000000000E+00
(PID.TID 0000.0001) %MON dynstat_theta_mean           =   5.6545097748526E-01
(PID.TID 0000.0001) %MON dynstat_theta_sd             =   8.4905715795928E-01
(PID.TID 0000.0001) %MON dynstat_theta_del2           =   1.2089464489405E-06
(PID.TID 0000.0001) %MON dynstat_salt_max             =   3.4700000000000E+01
(PID.TID 0000.0001) %MON dynstat_salt_min             =   3.4000000000000E+01
(PID.TID 0000.0001) %MON dynstat_salt_mean            =   3.4498093788980E+01
(PID.TID 0000.0001) %MON dynstat_salt_sd              =   2.7015503624221E-01
(PID.TID 0000.0001) %MON dynstat_salt_del2            =   3.8551329641755E-07
(PID.TID 0000.0001) %MON advcfl_uvel_max              =   3.6266438135721E-04
(PID.TID 0000.0001) %MON advcfl_vvel_max              =   3.3255964634300E-04
(PID.TID 0000.0001) %MON advcfl_wvel_max              =   1.0128034030913E-03
(PID.TID 0000.0001) %MON advcfl_W_hf_max              =   1.0128034030913E-03
(PID.TID 0000.0001) %MON pe_b_mean                    =  -6.8287025559598E-01
(PID.TID 0000.0001) %MON ke_max                       =   5.6115620000100E-06
(PID.TID 0000.0001) %MON ke_mean                      =   8.9150984382410E-09
(PID.TID 0000.0001) %MON ke_vol                       =   4.6182881234419E+12
(PID.TID 0000.0001) // =======================================================
(PID.TID 0000.0001) // End MONITOR dynamic field statistics
(PID.TID 0000.0001) // =======================================================
(PID.TID 0000.0001) // =======================================================
(PID.TID 0000.0001) // Begin OBCS MONITOR field statistics
(PID.TID 0000.0001) // =======================================================
(PID.TID 0000.0001) %MON obc_N_vVel_max               =  -3.3980557168271E-08
(PID.TID 0000.0001) %MON obc_N_vVel_min               =  -3.3980557168271E-08
(PID.TID 0000.0001) %MON obc_N_vVel_mean              =  -3.3980557168271E-08
(PID.TID 0000.0001) %MON obc_N_vVel_sd                =  -5.9164567891576E-30
(PID.TID 0000.0001) %MON obc_N_vVel_Int               =  -2.2427167731059E+00
(PID.TID 0000.0001) // =======================================================
(PID.TID 0000.0001) // End OBCS MONITOR field statistics
(PID.TID 0000.0001) // =======================================================
 cg2d: Sum(rhs),rhsMax =   3.01226490634969E+00  4.53052468988330E+02
(PID.TID 0000.0001)      cg2d_init_res =   2.11710703853841E-06
(PID.TID 0000.0001)      cg2d_iters(min,last) =      -1      66
(PID.TID 0000.0001)      cg2d_last_res =   7.68160426019397E-12
(PID.TID 0000.0001) // =======================================================
(PID.TID 0000.0001) // Begin MONITOR dynamic field statistics
(PID.TID 0000.0001) // =======================================================
(PID.TID 0000.0001) %MON time_tsnumber                =                   267
(PID.TID 0000.0001) %MON time_secondsf                =   2.6700000000000E+04
(PID.TID 0000.0001) %MON dynstat_eta_max              =   5.7962299033776E+00
(PID.TID 0000.0001) %MON dynstat_eta_min              =  -1.4177377931340E+01
(PID.TID 0000.0001) %MON dynstat_eta_mean             =  -2.5272482464234E+00
(PID.TID 0000.0001) %MON dynstat_eta_sd               =   4.9420335232986E+00
(PID.TID 0000.0001) %MON dynstat_eta_del2             =   1.9058058890532E-01
(PID.TID 0000.0001) %MON dynstat_uvel_max             =   2.0067078680235E-03
(PID.TID 0000.0001) %MON dynstat_uvel_min             =  -3.6262521177868E-03
(PID.TID 0000.0001) %MON dynstat_uvel_mean            =  -2.3185790785117E-10
(PID.TID 0000.0001) %MON dynstat_uvel_sd              =   8.9389292361934E-05
(PID.TID 0000.0001) %MON dynstat_uvel_del2            =   3.3767507897775E-07
(PID.TID 0000.0001) %MON dynstat_vvel_max             =   3.3250087204904E-03
(PID.TID 0000.0001) %MON dynstat_vvel_min             =  -1.6483447711266E-03
(PID.TID 0000.0001) %MON dynstat_vvel_mean            =  -2.3370201281624E-08
(PID.TID 0000.0001) %MON dynstat_vvel_sd              =   1.0025319812521E-04
(PID.TID 0000.0001) %MON dynstat_vvel_del2            =   3.8358267993736E-07
(PID.TID 0000.0001) %MON dynstat_wvel_max             =   2.0209734443366E-04
(PID.TID 0000.0001) %MON dynstat_wvel_min             =  -1.0334262443249E-04
(PID.TID 0000.0001) %MON dynstat_wvel_mean            =   1.1883156981354E-10
(PID.TID 0000.0001) %MON dynstat_wvel_sd              =   1.9977045709478E-05
(PID.TID 0000.0001) %MON dynstat_wvel_del2            =   1.0162055000652E-07
(PID.TID 0000.0001) %MON dynstat_theta_max            =   1.2000000000000E+00
(PID.TID 0000.0001) %MON dynstat_theta_min            =  -1.0000000000000E+00
(PID.TID 0000.0001) %MON dynstat_theta_mean           =   5.6545077475091E-01
(PID.TID 0000.0001) %MON dynstat_theta_sd             =   8.4905711511124E-01
(PID.TID 0000.0001) %MON dynstat_theta_del2           =   1.2048890647935E-06
(PID.TID 0000.0001) %MON dynstat_salt_max             =   3.4700000000000E+01
(PID.TID 0000.0001) %MON dynstat_salt_min             =   3.4000000000000E+01
(PID.TID 0000.0001) %MON dynstat_salt_mean            =   3.4498093708582E+01
(PID.TID 0000.0001) %MON dynstat_salt_sd              =   2.7015502420636E-01
(PID.TID 0000.0001) %MON dynstat_salt_del2            =   3.8438251921194E-07
(PID.TID 0000.0001) %MON advcfl_uvel_max              =   3.6262521177868E-04
(PID.TID 0000.0001) %MON advcfl_vvel_max              =   3.3250087204904E-04
(PID.TID 0000.0001) %MON advcfl_wvel_max              =   1.0104867221683E-03
(PID.TID 0000.0001) %MON advcfl_W_hf_max              =   1.0104867221683E-03
(PID.TID 0000.0001) %MON pe_b_mean                    =  -6.8286977032066E-01
(PID.TID 0000.0001) %MON ke_max                       =   5.6009079160781E-06
(PID.TID 0000.0001) %MON ke_mean                      =   8.9453064191851E-09
(PID.TID 0000.0001) %MON ke_vol                       =   4.6182881344277E+12
(PID.TID 0000.0001) // =======================================================
(PID.TID 0000.0001) // End MONITOR dynamic field statistics
(PID.TID 0000.0001) // =======================================================
(PID.TID 0000.0001) // =======================================================
(PID.TID 0000.0001) // Begin OBCS MONITOR field statistics
(PID.TID 0000.0001) // =======================================================
(PID.TID 0000.0001) %MON obc_N_vVel_max               =  -3.4309295626000E-08
(PID.TID 0000.0001) %MON obc_N_vVel_min               =  -3.4309295626000E-08
(PID.TID 0000.0001) %MON obc_N_vVel_mean              =  -3.4309295626000E-08
(PID.TID 0000.0001) %MON obc_N_vVel_sd                =  -4.7528869539566E-29
(PID.TID 0000.0001) %MON obc_N_vVel_Int               =  -2.2644135113160E+00
(PID.TID 0000.0001) // =======================================================
(PID.TID 0000.0001) // End OBCS MONITOR field statistics
(PID.TID 0000.0001) // =======================================================
 cg2d: Sum(rhs),rhsMax =   3.01226276786831E+00  4.53052458698397E+02
(PID.TID 0000.0001)      cg2d_init_res =   2.10744230303456E-06
(PID.TID 0000.0001)      cg2d_iters(min,last) =      -1      66
(PID.TID 0000.0001)      cg2d_last_res =   7.62117269242542E-12
(PID.TID 0000.0001) // =======================================================
(PID.TID 0000.0001) // Begin MONITOR dynamic field statistics
(PID.TID 0000.0001) // =======================================================
(PID.TID 0000.0001) %MON time_tsnumber                =                   268
(PID.TID 0000.0001) %MON time_secondsf                =   2.6800000000000E+04
(PID.TID 0000.0001) %MON dynstat_eta_max              =   5.7962324211270E+00
(PID.TID 0000.0001) %MON dynstat_eta_min              =  -1.4177372483880E+01
(PID.TID 0000.0001) %MON dynstat_eta_mean             =  -2.5272463948674E+00
(PID.TID 0000.0001) %MON dynstat_eta_sd               =   4.9420329131397E+00
(PID.TID 0000.0001) %MON dynstat_eta_del2             =   1.9058058896142E-01
(PID.TID 0000.0001) %MON dynstat_uvel_max             =   1.9957122895349E-03
(PID.TID 0000.0001) %MON dynstat_uvel_min             =  -3.6257750898510E-03
(PID.TID 0000.0001) %MON dynstat_uvel_mean            =  -2.0138005109564E-10
(PID.TID 0000.0001) %MON dynstat_uvel_sd              =   8.9651862901797E-05
(PID.TID 0000.0001) %MON dynstat_uvel_del2            =   3.3689530277855E-07
(PID.TID 0000.0001) %MON dynstat_vvel_max             =   3.3243514639736E-03
(PID.TID 0000.0001) %MON dynstat_vvel_min             =  -1.6501933901178E-03
(PID.TID 0000.0001) %MON dynstat_vvel_mean            =  -2.6003387797550E-08
(PID.TID 0000.0001) %MON dynstat_vvel_sd              =   1.0032436445487E-04
(PID.TID 0000.0001) %MON dynstat_vvel_del2            =   3.8257798470279E-07
(PID.TID 0000.0001) %MON dynstat_wvel_max             =   2.0162934381560E-04
(PID.TID 0000.0001) %MON dynstat_wvel_min             =  -1.0172696928178E-04
(PID.TID 0000.0001) %MON dynstat_wvel_mean            =   1.0933560672701E-10
(PID.TID 0000.0001) %MON dynstat_wvel_sd              =   1.9920183461819E-05
(PID.TID 0000.0001) %MON dynstat_wvel_del2            =   1.0115633314688E-07
(PID.TID 0000.0001) %MON dynstat_theta_max            =   1.2000000000000E+00
(PID.TID 0000.0001) %MON dynstat_theta_min            =  -1.0000000000000E+00
(PID.TID 0000.0001) %MON dynstat_theta_mean           =   5.6545057200396E-01
(PID.TID 0000.0001) %MON dynstat_theta_sd             =   8.4905707228729E-01
(PID.TID 0000.0001) %MON dynstat_theta_del2           =   1.2009042365181E-06
(PID.TID 0000.0001) %MON dynstat_salt_max             =   3.4700000000000E+01
(PID.TID 0000.0001) %MON dynstat_salt_min             =   3.4000000000000E+01
(PID.TID 0000.0001) %MON dynstat_salt_mean            =   3.4498093628178E+01
(PID.TID 0000.0001) %MON dynstat_salt_sd              =   2.7015501217592E-01
(PID.TID 0000.0001) %MON dynstat_salt_del2            =   3.8327534930159E-07
(PID.TID 0000.0001) %MON advcfl_uvel_max              =   3.6257750898510E-04
(PID.TID 0000.0001) %MON advcfl_vvel_max              =   3.3243514639736E-04
(PID.TID 0000.0001) %MON advcfl_wvel_max              =   1.0081467190780E-03
(PID.TID 0000.0001) %MON advcfl_W_hf_max              =   1.0081467190780E-03
(PID.TID 0000.0001) %MON pe_b_mean                    =  -6.8286928442770E-01
(PID.TID 0000.0001) %MON ke_max                       =   5.5900991881877E-06
(PID.TID 0000.0001) %MON ke_mean                      =   8.9755070482680E-09
(PID.TID 0000.0001) %MON ke_vol                       =   4.6182881454162E+12
(PID.TID 0000.0001) // =======================================================
(PID.TID 0000.0001) // End MONITOR dynamic field statistics
(PID.TID 0000.0001) // =======================================================
(PID.TID 0000.0001) // =======================================================
(PID.TID 0000.0001) // Begin OBCS MONITOR field statistics
(PID.TID 0000.0001) // =======================================================
(PID.TID 0000.0001) %MON obc_N_vVel_max               =  -3.5674652757712E-08
(PID.TID 0000.0001) %MON obc_N_vVel_min               =  -3.5674652757714E-08
(PID.TID 0000.0001) %MON obc_N_vVel_mean              =  -3.5674652757712E-08
(PID.TID 0000.0001) %MON obc_N_vVel_sd                =   1.2056020147087E-14
(PID.TID 0000.0001) %MON obc_N_vVel_Int               =  -2.3545270820090E+00
(PID.TID 0000.0001) // =======================================================
(PID.TID 0000.0001) // End OBCS MONITOR field statistics
(PID.TID 0000.0001) // =======================================================
 cg2d: Sum(rhs),rhsMax =   3.01226062668003E+00  4.53052448351677E+02
(PID.TID 0000.0001)      cg2d_init_res =   2.09644204683262E-06
(PID.TID 0000.0001)      cg2d_iters(min,last) =      -1      66
(PID.TID 0000.0001)      cg2d_last_res =   7.59514640561716E-12
(PID.TID 0000.0001) // =======================================================
(PID.TID 0000.0001) // Begin MONITOR dynamic field statistics
(PID.TID 0000.0001) // =======================================================
(PID.TID 0000.0001) %MON time_tsnumber                =                   269
(PID.TID 0000.0001) %MON time_secondsf                =   2.6900000000000E+04
(PID.TID 0000.0001) %MON dynstat_eta_max              =   5.7962349511872E+00
(PID.TID 0000.0001) %MON dynstat_eta_min              =  -1.4177367031832E+01
(PID.TID 0000.0001) %MON dynstat_eta_mean             =  -2.5272445407236E+00
(PID.TID 0000.0001) %MON dynstat_eta_sd               =   4.9420323015168E+00
(PID.TID 0000.0001) %MON dynstat_eta_del2             =   1.9058058902618E-01
(PID.TID 0000.0001) %MON dynstat_uvel_max             =   1.9846324392550E-03
(PID.TID 0000.0001) %MON dynstat_uvel_min             =  -3.6252133240979E-03
(PID.TID 0000.0001) %MON dynstat_uvel_mean            =  -1.8203390171963E-10
(PID.TID 0000.0001) %MON dynstat_uvel_sd              =   8.9916494090678E-05
(PID.TID 0000.0001) %MON dynstat_uvel_del2            =   3.3611937639825E-07
(PID.TID 0000.0001) %MON dynstat_vvel_max             =   3.3236253308315E-03
(PID.TID 0000.0001) %MON dynstat_vvel_min             =  -1.6520397563102E-03
(PID.TID 0000.0001) %MON dynstat_vvel_mean            =  -2.9331614014516E-08
(PID.TID 0000.0001) %MON dynstat_vvel_sd              =   1.0039368581536E-04
(PID.TID 0000.0001) %MON dynstat_vvel_del2            =   3.8154204286650E-07
(PID.TID 0000.0001) %MON dynstat_wvel_max             =   2.0115673838296E-04
(PID.TID 0000.0001) %MON dynstat_wvel_min             =  -1.0431087128499E-04
(PID.TID 0000.0001) %MON dynstat_wvel_mean            =   1.0174391465391E-10
(PID.TID 0000.0001) %MON dynstat_wvel_sd              =   1.9859140649923E-05
(PID.TID 0000.0001) %MON dynstat_wvel_del2            =   1.0063733100840E-07
(PID.TID 0000.0001) %MON dynstat_theta_max            =   1.2000000000000E+00
(PID.TID 0000.0001) %MON dynstat_theta_min            =  -1.0000000000000E+00
(PID.TID 0000.0001) %MON dynstat_theta_mean           =   5.6545036924265E-01
(PID.TID 0000.0001) %MON dynstat_theta_sd             =   8.4905702944705E-01
(PID.TID 0000.0001) %MON dynstat_theta_del2           =   1.1969767006077E-06
(PID.TID 0000.0001) %MON dynstat_salt_max             =   3.4700000000000E+01
(PID.TID 0000.0001) %MON dynstat_salt_min             =   3.4000000000000E+01
(PID.TID 0000.0001) %MON dynstat_salt_mean            =   3.4498093547769E+01
(PID.TID 0000.0001) %MON dynstat_salt_sd              =   2.7015500013775E-01
(PID.TID 0000.0001) %MON dynstat_salt_del2            =   3.8218701346501E-07
(PID.TID 0000.0001) %MON advcfl_uvel_max              =   3.6252133240979E-04
(PID.TID 0000.0001) %MON advcfl_vvel_max              =   3.3236253308315E-04
(PID.TID 0000.0001) %MON advcfl_wvel_max              =   1.0057836919148E-03
(PID.TID 0000.0001) %MON advcfl_W_hf_max              =   1.0057836919148E-03
(PID.TID 0000.0001) %MON pe_b_mean                    =  -6.8286879777512E-01
(PID.TID 0000.0001) %MON ke_max                       =   5.5791398674587E-06
(PID.TID 0000.0001) %MON ke_mean                      =   9.0057769984884E-09
(PID.TID 0000.0001) %MON ke_vol                       =   4.6182881564145E+12
(PID.TID 0000.0001) // =======================================================
(PID.TID 0000.0001) // End MONITOR dynamic field statistics
(PID.TID 0000.0001) // =======================================================
(PID.TID 0000.0001) // =======================================================
(PID.TID 0000.0001) // Begin OBCS MONITOR field statistics
(PID.TID 0000.0001) // =======================================================
(PID.TID 0000.0001) %MON obc_N_vVel_max               =  -3.7889919629800E-08
(PID.TID 0000.0001) %MON obc_N_vVel_min               =  -3.7889919629800E-08
(PID.TID 0000.0001) %MON obc_N_vVel_mean              =  -3.7889919629800E-08
(PID.TID 0000.0001) %MON obc_N_vVel_sd                =  -4.0823551845187E-29
(PID.TID 0000.0001) %MON obc_N_vVel_Int               =  -2.5007346955668E+00
(PID.TID 0000.0001) // =======================================================
(PID.TID 0000.0001) // End OBCS MONITOR field statistics
(PID.TID 0000.0001) // =======================================================
 cg2d: Sum(rhs),rhsMax =   3.01225848200544E+00  4.53052437932054E+02
(PID.TID 0000.0001)      cg2d_init_res =   2.08471101907559E-06
(PID.TID 0000.0001)      cg2d_iters(min,last) =      -1      66
(PID.TID 0000.0001)      cg2d_last_res =   7.61173806449416E-12
(PID.TID 0000.0001) // =======================================================
(PID.TID 0000.0001) // Begin MONITOR dynamic field statistics
(PID.TID 0000.0001) // =======================================================
(PID.TID 0000.0001) %MON time_tsnumber                =                   270
(PID.TID 0000.0001) %MON time_secondsf                =   2.7000000000000E+04
(PID.TID 0000.0001) %MON dynstat_eta_max              =   5.7962374946061E+00
(PID.TID 0000.0001) %MON dynstat_eta_min              =  -1.4177361574535E+01
(PID.TID 0000.0001) %MON dynstat_eta_mean             =  -2.5272426832483E+00
(PID.TID 0000.0001) %MON dynstat_eta_sd               =   4.9420316883610E+00
(PID.TID 0000.0001) %MON dynstat_eta_del2             =   1.9058058909905E-01
(PID.TID 0000.0001) %MON dynstat_uvel_max             =   1.9734693196956E-03
(PID.TID 0000.0001) %MON dynstat_uvel_min             =  -3.6245674120021E-03
(PID.TID 0000.0001) %MON dynstat_uvel_mean            =  -1.7321925250538E-10
(PID.TID 0000.0001) %MON dynstat_uvel_sd              =   9.0183171458741E-05
(PID.TID 0000.0001) %MON dynstat_uvel_del2            =   3.3534738822496E-07
(PID.TID 0000.0001) %MON dynstat_vvel_max             =   3.3228309456179E-03
(PID.TID 0000.0001) %MON dynstat_vvel_min             =  -1.6538798932650E-03
(PID.TID 0000.0001) %MON dynstat_vvel_mean            =  -3.3149937321834E-08
(PID.TID 0000.0001) %MON dynstat_vvel_sd              =   1.0046214312613E-04
(PID.TID 0000.0001) %MON dynstat_vvel_del2            =   3.8049339768335E-07
(PID.TID 0000.0001) %MON dynstat_wvel_max             =   2.0067958741114E-04
(PID.TID 0000.0001) %MON dynstat_wvel_min             =  -1.0516065160336E-04
(PID.TID 0000.0001) %MON dynstat_wvel_mean            =   9.6050730136948E-11
(PID.TID 0000.0001) %MON dynstat_wvel_sd              =   1.9796222387610E-05
(PID.TID 0000.0001) %MON dynstat_wvel_del2            =   1.0009538760944E-07
(PID.TID 0000.0001) %MON dynstat_theta_max            =   1.2000000000000E+00
(PID.TID 0000.0001) %MON dynstat_theta_min            =  -1.0000000000000E+00
(PID.TID 0000.0001) %MON dynstat_theta_mean           =   5.6545016646590E-01
(PID.TID 0000.0001) %MON dynstat_theta_sd             =   8.4905698653741E-01
(PID.TID 0000.0001) %MON dynstat_theta_del2           =   1.1930880499827E-06
(PID.TID 0000.0001) %MON dynstat_salt_max             =   3.4700000000000E+01
(PID.TID 0000.0001) %MON dynstat_salt_min             =   3.4000000000000E+01
(PID.TID 0000.0001) %MON dynstat_salt_mean            =   3.4498093467353E+01
(PID.TID 0000.0001) %MON dynstat_salt_sd              =   2.7015498807493E-01
(PID.TID 0000.0001) %MON dynstat_salt_del2            =   3.8111169698881E-07
(PID.TID 0000.0001) %MON advcfl_uvel_max              =   3.6245674120021E-04
(PID.TID 0000.0001) %MON advcfl_vvel_max              =   3.3228309456179E-04
(PID.TID 0000.0001) %MON advcfl_wvel_max              =   1.0033979370557E-03
(PID.TID 0000.0001) %MON advcfl_W_hf_max              =   1.0033979370557E-03
(PID.TID 0000.0001) %MON pe_b_mean                    =  -6.8286831026470E-01
(PID.TID 0000.0001) %MON ke_max                       =   5.5680339659376E-06
(PID.TID 0000.0001) %MON ke_mean                      =   9.0362147525366E-09
(PID.TID 0000.0001) %MON ke_vol                       =   4.6182881674281E+12
(PID.TID 0000.0001) // =======================================================
(PID.TID 0000.0001) // End MONITOR dynamic field statistics
(PID.TID 0000.0001) // =======================================================
(PID.TID 0000.0001) // =======================================================
(PID.TID 0000.0001) // Begin OBCS MONITOR field statistics
(PID.TID 0000.0001) // =======================================================
(PID.TID 0000.0001) %MON obc_N_vVel_max               =  -4.0768571822908E-08
(PID.TID 0000.0001) %MON obc_N_vVel_min               =  -4.0768571822909E-08
(PID.TID 0000.0001) %MON obc_N_vVel_mean              =  -4.0768571822909E-08
(PID.TID 0000.0001) %MON obc_N_vVel_sd                =  -8.8944067063669E-29
(PID.TID 0000.0001) %MON obc_N_vVel_Int               =  -2.6907257403120E+00
(PID.TID 0000.0001) // =======================================================
(PID.TID 0000.0001) // End OBCS MONITOR field statistics
(PID.TID 0000.0001) // =======================================================
 cg2d: Sum(rhs),rhsMax =   3.01225633331281E+00  4.53052427421769E+02
(PID.TID 0000.0001)      cg2d_init_res =   2.07295715326236E-06
(PID.TID 0000.0001)      cg2d_iters(min,last) =      -1      66
(PID.TID 0000.0001)      cg2d_last_res =   7.65835323866944E-12
(PID.TID 0000.0001) // =======================================================
(PID.TID 0000.0001) // Begin MONITOR dynamic field statistics
(PID.TID 0000.0001) // =======================================================
(PID.TID 0000.0001) %MON time_tsnumber                =                   271
(PID.TID 0000.0001) %MON time_secondsf                =   2.7100000000000E+04
(PID.TID 0000.0001) %MON dynstat_eta_max              =   5.7962400521031E+00
(PID.TID 0000.0001) %MON dynstat_eta_min              =  -1.4177356111719E+01
(PID.TID 0000.0001) %MON dynstat_eta_mean             =  -2.5272408218962E+00
(PID.TID 0000.0001) %MON dynstat_eta_sd               =   4.9420310736569E+00
(PID.TID 0000.0001) %MON dynstat_eta_del2             =   1.9058058917939E-01
(PID.TID 0000.0001) %MON dynstat_uvel_max             =   1.9622239306099E-03
(PID.TID 0000.0001) %MON dynstat_uvel_min             =  -3.6238379420221E-03
(PID.TID 0000.0001) %MON dynstat_uvel_mean            =  -1.7394768137794E-10
(PID.TID 0000.0001) %MON dynstat_uvel_sd              =   9.0451879387432E-05
(PID.TID 0000.0001) %MON dynstat_uvel_del2            =   3.3457942335878E-07
(PID.TID 0000.0001) %MON dynstat_vvel_max             =   3.3219689177004E-03
(PID.TID 0000.0001) %MON dynstat_vvel_min             =  -1.6557098113363E-03
(PID.TID 0000.0001) %MON dynstat_vvel_mean            =  -3.7270007011839E-08
(PID.TID 0000.0001) %MON dynstat_vvel_sd              =   1.0053079979680E-04
(PID.TID 0000.0001) %MON dynstat_vvel_del2            =   3.7945179362855E-07
(PID.TID 0000.0001) %MON dynstat_wvel_max             =   2.0019794997731E-04
(PID.TID 0000.0001) %MON dynstat_wvel_min             =  -1.0424566099528E-04
(PID.TID 0000.0001) %MON dynstat_wvel_mean            =   9.2181646467197E-11
(PID.TID 0000.0001) %MON dynstat_wvel_sd              =   1.9733930659992E-05
(PID.TID 0000.0001) %MON dynstat_wvel_del2            =   9.9564534952967E-08
(PID.TID 0000.0001) %MON dynstat_theta_max            =   1.2000000000000E+00
(PID.TID 0000.0001) %MON dynstat_theta_min            =  -1.0000000000000E+00
(PID.TID 0000.0001) %MON dynstat_theta_mean           =   5.6544996367267E-01
(PID.TID 0000.0001) %MON dynstat_theta_sd             =   8.4905694358494E-01
(PID.TID 0000.0001) %MON dynstat_theta_del2           =   1.1892204649639E-06
(PID.TID 0000.0001) %MON dynstat_salt_max             =   3.4700000000000E+01
(PID.TID 0000.0001) %MON dynstat_salt_min             =   3.4000000000000E+01
(PID.TID 0000.0001) %MON dynstat_salt_mean            =   3.4498093386931E+01
(PID.TID 0000.0001) %MON dynstat_salt_sd              =   2.7015497599588E-01
(PID.TID 0000.0001) %MON dynstat_salt_del2            =   3.8004375336000E-07
(PID.TID 0000.0001) %MON advcfl_uvel_max              =   3.6238379420221E-04
(PID.TID 0000.0001) %MON advcfl_vvel_max              =   3.3219689177004E-04
(PID.TID 0000.0001) %MON advcfl_wvel_max              =   1.0009897498866E-03
(PID.TID 0000.0001) %MON advcfl_W_hf_max              =   1.0009897498866E-03
(PID.TID 0000.0001) %MON pe_b_mean                    =  -6.8286782183707E-01
(PID.TID 0000.0001) %MON ke_max                       =   5.5567854514835E-06
(PID.TID 0000.0001) %MON ke_mean                      =   9.0669272529236E-09
(PID.TID 0000.0001) %MON ke_vol                       =   4.6182881784615E+12
(PID.TID 0000.0001) // =======================================================
(PID.TID 0000.0001) // End MONITOR dynamic field statistics
(PID.TID 0000.0001) // =======================================================
(PID.TID 0000.0001) // =======================================================
(PID.TID 0000.0001) // Begin OBCS MONITOR field statistics
(PID.TID 0000.0001) // =======================================================
(PID.TID 0000.0001) %MON obc_N_vVel_max               =  -4.4131830182993E-08
(PID.TID 0000.0001) %MON obc_N_vVel_min               =  -4.4131830182994E-08
(PID.TID 0000.0001) %MON obc_N_vVel_mean              =  -4.4131830182993E-08
(PID.TID 0000.0001) %MON obc_N_vVel_sd                =   1.0695084443661E-14
(PID.TID 0000.0001) %MON obc_N_vVel_Int               =  -2.9127007920775E+00
(PID.TID 0000.0001) // =======================================================
(PID.TID 0000.0001) // End OBCS MONITOR field statistics
(PID.TID 0000.0001) // =======================================================
 cg2d: Sum(rhs),rhsMax =   3.01225418029139E+00  4.53052416802332E+02
(PID.TID 0000.0001)      cg2d_init_res =   2.06193060565182E-06
(PID.TID 0000.0001)      cg2d_iters(min,last) =      -1      66
(PID.TID 0000.0001)      cg2d_last_res =   7.71522411164068E-12
(PID.TID 0000.0001) // =======================================================
(PID.TID 0000.0001) // Begin MONITOR dynamic field statistics
(PID.TID 0000.0001) // =======================================================
(PID.TID 0000.0001) %MON time_tsnumber                =                   272
(PID.TID 0000.0001) %MON time_secondsf                =   2.7200000000000E+04
(PID.TID 0000.0001) %MON dynstat_eta_max              =   5.7962426240781E+00
(PID.TID 0000.0001) %MON dynstat_eta_min              =  -1.4177350643855E+01
(PID.TID 0000.0001) %MON dynstat_eta_mean             =  -2.5272389563036E+00
(PID.TID 0000.0001) %MON dynstat_eta_sd               =   4.9420304574223E+00
(PID.TID 0000.0001) %MON dynstat_eta_del2             =   1.9058058926597E-01
(PID.TID 0000.0001) %MON dynstat_uvel_max             =   1.9508972685269E-03
(PID.TID 0000.0001) %MON dynstat_uvel_min             =  -3.6230255003127E-03
(PID.TID 0000.0001) %MON dynstat_uvel_mean            =  -1.8295538456996E-10
(PID.TID 0000.0001) %MON dynstat_uvel_sd              =   9.0722601244832E-05
(PID.TID 0000.0001) %MON dynstat_uvel_del2            =   3.3381556328561E-07
(PID.TID 0000.0001) %MON dynstat_vvel_max             =   3.3210398391228E-03
(PID.TID 0000.0001) %MON dynstat_vvel_min             =  -1.6575255161531E-03
(PID.TID 0000.0001) %MON dynstat_vvel_mean            =  -4.1525634383938E-08
(PID.TID 0000.0001) %MON dynstat_vvel_sd              =   1.0060066180924E-04
(PID.TID 0000.0001) %MON dynstat_vvel_del2            =   3.7843559471874E-07
(PID.TID 0000.0001) %MON dynstat_wvel_max             =   1.9971188557394E-04
(PID.TID 0000.0001) %MON dynstat_wvel_min             =  -1.0156590298671E-04
(PID.TID 0000.0001) %MON dynstat_wvel_mean            =   9.0006482329966E-11
(PID.TID 0000.0001) %MON dynstat_wvel_sd              =   1.9674634118963E-05
(PID.TID 0000.0001) %MON dynstat_wvel_del2            =   9.9076544484242E-08
(PID.TID 0000.0001) %MON dynstat_theta_max            =   1.2000000000000E+00
(PID.TID 0000.0001) %MON dynstat_theta_min            =  -1.0000000000000E+00
(PID.TID 0000.0001) %MON dynstat_theta_mean           =   5.6544976086178E-01
(PID.TID 0000.0001) %MON dynstat_theta_sd             =   8.4905690061345E-01
(PID.TID 0000.0001) %MON dynstat_theta_del2           =   1.1853585052753E-06
(PID.TID 0000.0001) %MON dynstat_salt_max             =   3.4700000000000E+01
(PID.TID 0000.0001) %MON dynstat_salt_min             =   3.4000000000000E+01
(PID.TID 0000.0001) %MON dynstat_salt_mean            =   3.4498093306502E+01
(PID.TID 0000.0001) %MON dynstat_salt_sd              =   2.7015496390821E-01
(PID.TID 0000.0001) %MON dynstat_salt_del2            =   3.7897832934233E-07
(PID.TID 0000.0001) %MON advcfl_uvel_max              =   3.6230255003127E-04
(PID.TID 0000.0001) %MON advcfl_vvel_max              =   3.3210398391228E-04
(PID.TID 0000.0001) %MON advcfl_wvel_max              =   9.9855942786968E-04
(PID.TID 0000.0001) %MON advcfl_W_hf_max              =   9.9855942786968E-04
(PID.TID 0000.0001) %MON pe_b_mean                    =  -6.8286733246559E-01
(PID.TID 0000.0001) %MON ke_max                       =   5.5453982438315E-06
(PID.TID 0000.0001) %MON ke_mean                      =   9.0980158617878E-09
(PID.TID 0000.0001) %MON ke_vol                       =   4.6182881895179E+12
(PID.TID 0000.0001) // =======================================================
(PID.TID 0000.0001) // End MONITOR dynamic field statistics
(PID.TID 0000.0001) // =======================================================
(PID.TID 0000.0001) // =======================================================
(PID.TID 0000.0001) // Begin OBCS MONITOR field statistics
(PID.TID 0000.0001) // =======================================================
(PID.TID 0000.0001) %MON obc_N_vVel_max               =  -4.7814813747683E-08
(PID.TID 0000.0001) %MON obc_N_vVel_min               =  -4.7814813747685E-08
(PID.TID 0000.0001) %MON obc_N_vVel_mean              =  -4.7814813747683E-08
(PID.TID 0000.0001) %MON obc_N_vVel_sd                =   1.5900626406634E-14
(PID.TID 0000.0001) %MON obc_N_vVel_Int               =  -3.1557777073471E+00
(PID.TID 0000.0001) // =======================================================
(PID.TID 0000.0001) // End OBCS MONITOR field statistics
(PID.TID 0000.0001) // =======================================================
 cg2d: Sum(rhs),rhsMax =   3.01225202282623E+00  4.53052406055674E+02
(PID.TID 0000.0001)      cg2d_init_res =   2.05229979767943E-06
(PID.TID 0000.0001)      cg2d_iters(min,last) =      -1      66
(PID.TID 0000.0001)      cg2d_last_res =   7.77600443084709E-12
(PID.TID 0000.0001) // =======================================================
(PID.TID 0000.0001) // Begin MONITOR dynamic field statistics
(PID.TID 0000.0001) // =======================================================
(PID.TID 0000.0001) %MON time_tsnumber                =                   273
(PID.TID 0000.0001) %MON time_secondsf                =   2.7300000000000E+04
(PID.TID 0000.0001) %MON dynstat_eta_max              =   5.7962452106553E+00
(PID.TID 0000.0001) %MON dynstat_eta_min              =  -1.4177345171034E+01
(PID.TID 0000.0001) %MON dynstat_eta_mean             =  -2.5272370862731E+00
(PID.TID 0000.0001) %MON dynstat_eta_sd               =   4.9420298397175E+00
(PID.TID 0000.0001) %MON dynstat_eta_del2             =   1.9058058935790E-01
(PID.TID 0000.0001) %MON dynstat_uvel_max             =   1.9394903261745E-03
(PID.TID 0000.0001) %MON dynstat_uvel_min             =  -3.6221306711701E-03
(PID.TID 0000.0001) %MON dynstat_uvel_mean            =  -1.9880339949419E-10
(PID.TID 0000.0001) %MON dynstat_uvel_sd              =   9.0995319544635E-05
(PID.TID 0000.0001) %MON dynstat_uvel_del2            =   3.3305588586140E-07
(PID.TID 0000.0001) %MON dynstat_vvel_max             =   3.3200442824599E-03
(PID.TID 0000.0001) %MON dynstat_vvel_min             =  -1.6593230162467E-03
(PID.TID 0000.0001) %MON dynstat_vvel_mean            =  -4.5776618302569E-08
(PID.TID 0000.0001) %MON dynstat_vvel_sd              =   1.0067255022591E-04
(PID.TID 0000.0001) %MON dynstat_vvel_del2            =   3.7745945500381E-07
(PID.TID 0000.0001) %MON dynstat_wvel_max             =   1.9922145346253E-04
(PID.TID 0000.0001) %MON dynstat_wvel_min             =  -9.7152563440964E-05
(PID.TID 0000.0001) %MON dynstat_wvel_mean            =   8.9348566540247E-11
(PID.TID 0000.0001) %MON dynstat_wvel_sd              =   1.9620260986644E-05
(PID.TID 0000.0001) %MON dynstat_wvel_del2            =   9.8656775519848E-08
(PID.TID 0000.0001) %MON dynstat_theta_max            =   1.2000000000000E+00
(PID.TID 0000.0001) %MON dynstat_theta_min            =  -1.0000000000000E+00
(PID.TID 0000.0001) %MON dynstat_theta_mean           =   5.6544955803254E-01
(PID.TID 0000.0001) %MON dynstat_theta_sd             =   8.4905685765600E-01
(PID.TID 0000.0001) %MON dynstat_theta_del2           =   1.1814909900158E-06
(PID.TID 0000.0001) %MON dynstat_salt_max             =   3.4700000000000E+01
(PID.TID 0000.0001) %MON dynstat_salt_min             =   3.4000000000000E+01
(PID.TID 0000.0001) %MON dynstat_salt_mean            =   3.4498093226066E+01
(PID.TID 0000.0001) %MON dynstat_salt_sd              =   2.7015495182228E-01
(PID.TID 0000.0001) %MON dynstat_salt_del2            =   3.7791184770767E-07
(PID.TID 0000.0001) %MON advcfl_uvel_max              =   3.6221306711701E-04
(PID.TID 0000.0001) %MON advcfl_vvel_max              =   3.3200442824599E-04
(PID.TID 0000.0001) %MON advcfl_wvel_max              =   9.9610726731267E-04
(PID.TID 0000.0001) %MON advcfl_W_hf_max              =   9.9610726731267E-04
(PID.TID 0000.0001) %MON pe_b_mean                    =  -6.8286684215368E-01
(PID.TID 0000.0001) %MON ke_max                       =   5.5338762105470E-06
(PID.TID 0000.0001) %MON ke_mean                      =   9.1295635260754E-09
(PID.TID 0000.0001) %MON ke_vol                       =   4.6182882005996E+12
(PID.TID 0000.0001) // =======================================================
(PID.TID 0000.0001) // End MONITOR dynamic field statistics
(PID.TID 0000.0001) // =======================================================
(PID.TID 0000.0001) // =======================================================
(PID.TID 0000.0001) // Begin OBCS MONITOR field statistics
(PID.TID 0000.0001) // =======================================================
(PID.TID 0000.0001) %MON obc_N_vVel_max               =  -5.1670961942350E-08
(PID.TID 0000.0001) %MON obc_N_vVel_min               =  -5.1670961942351E-08
(PID.TID 0000.0001) %MON obc_N_vVel_mean              =  -5.1670961942351E-08
(PID.TID 0000.0001) %MON obc_N_vVel_sd                =  -2.2088105346188E-29
(PID.TID 0000.0001) %MON obc_N_vVel_Int               =  -3.4102834881952E+00
(PID.TID 0000.0001) // =======================================================
(PID.TID 0000.0001) // End OBCS MONITOR field statistics
(PID.TID 0000.0001) // =======================================================
 cg2d: Sum(rhs),rhsMax =   3.01224986095728E+00  4.53052395164823E+02
(PID.TID 0000.0001)      cg2d_init_res =   2.04456495966433E-06
(PID.TID 0000.0001)      cg2d_iters(min,last) =      -1      66
(PID.TID 0000.0001)      cg2d_last_res =   7.82617185635515E-12
(PID.TID 0000.0001) // =======================================================
(PID.TID 0000.0001) // Begin MONITOR dynamic field statistics
(PID.TID 0000.0001) // =======================================================
(PID.TID 0000.0001) %MON time_tsnumber                =                   274
(PID.TID 0000.0001) %MON time_secondsf                =   2.7400000000000E+04
(PID.TID 0000.0001) %MON dynstat_eta_max              =   5.7962478117031E+00
(PID.TID 0000.0001) %MON dynstat_eta_min              =  -1.4177339693922E+01
(PID.TID 0000.0001) %MON dynstat_eta_mean             =  -2.5272352117437E+00
(PID.TID 0000.0001) %MON dynstat_eta_sd               =   4.9420292206228E+00
(PID.TID 0000.0001) %MON dynstat_eta_del2             =   1.9058058945431E-01
(PID.TID 0000.0001) %MON dynstat_uvel_max             =   1.9280040922496E-03
(PID.TID 0000.0001) %MON dynstat_uvel_min             =  -3.6211540349043E-03
(PID.TID 0000.0001) %MON dynstat_uvel_mean            =  -2.1994449675039E-10
(PID.TID 0000.0001) %MON dynstat_uvel_sd              =   9.1270016067164E-05
(PID.TID 0000.0001) %MON dynstat_uvel_del2            =   3.3230046539755E-07
(PID.TID 0000.0001) %MON dynstat_vvel_max             =   3.3189828002653E-03
(PID.TID 0000.0001) %MON dynstat_vvel_min             =  -1.6610983299721E-03
(PID.TID 0000.0001) %MON dynstat_vvel_mean            =  -4.9910927433223E-08
(PID.TID 0000.0001) %MON dynstat_vvel_sd              =   1.0074700177441E-04
(PID.TID 0000.0001) %MON dynstat_vvel_del2            =   3.7653253931621E-07
(PID.TID 0000.0001) %MON dynstat_wvel_max             =   1.9872671292196E-04
(PID.TID 0000.0001) %MON dynstat_wvel_min             =  -9.2317200160713E-05
(PID.TID 0000.0001) %MON dynstat_wvel_mean            =   8.9997659725115E-11
(PID.TID 0000.0001) %MON dynstat_wvel_sd              =   1.9572055468236E-05
(PID.TID 0000.0001) %MON dynstat_wvel_del2            =   9.8320900712244E-08
(PID.TID 0000.0001) %MON dynstat_theta_max            =   1.2000000000000E+00
(PID.TID 0000.0001) %MON dynstat_theta_min            =  -1.0000000000000E+00
(PID.TID 0000.0001) %MON dynstat_theta_mean           =   5.6544935518402E-01
(PID.TID 0000.0001) %MON dynstat_theta_sd             =   8.4905681474994E-01
(PID.TID 0000.0001) %MON dynstat_theta_del2           =   1.1776115957886E-06
(PID.TID 0000.0001) %MON dynstat_salt_max             =   3.4700000000000E+01
(PID.TID 0000.0001) %MON dynstat_salt_min             =   3.4000000000000E+01
(PID.TID 0000.0001) %MON dynstat_salt_mean            =   3.4498093145623E+01
(PID.TID 0000.0001) %MON dynstat_salt_sd              =   2.7015493975012E-01
(PID.TID 0000.0001) %MON dynstat_salt_del2            =   3.7684241099223E-07
(PID.TID 0000.0001) %MON advcfl_uvel_max              =   3.6211540349043E-04
(PID.TID 0000.0001) %MON advcfl_vvel_max              =   3.3189828002653E-04
(PID.TID 0000.0001) %MON advcfl_wvel_max              =   9.9363356460982E-04
(PID.TID 0000.0001) %MON advcfl_W_hf_max              =   9.9363356460982E-04
(PID.TID 0000.0001) %MON pe_b_mean                    =  -6.8286635092627E-01
(PID.TID 0000.0001) %MON ke_max                       =   5.5222231658072E-06
(PID.TID 0000.0001) %MON ke_mean                      =   9.1616247199819E-09
(PID.TID 0000.0001) %MON ke_vol                       =   4.6182882117075E+12
(PID.TID 0000.0001) // =======================================================
(PID.TID 0000.0001) // End MONITOR dynamic field statistics
(PID.TID 0000.0001) // =======================================================
(PID.TID 0000.0001) // =======================================================
(PID.TID 0000.0001) // Begin OBCS MONITOR field statistics
(PID.TID 0000.0001) // =======================================================
(PID.TID 0000.0001) %MON obc_N_vVel_max               =  -5.5575413435652E-08
(PID.TID 0000.0001) %MON obc_N_vVel_min               =  -5.5575413435654E-08
(PID.TID 0000.0001) %MON obc_N_vVel_mean              =  -5.5575413435652E-08
(PID.TID 0000.0001) %MON obc_N_vVel_sd                =   1.3263332230789E-14
(PID.TID 0000.0001) %MON obc_N_vVel_Int               =  -3.6679772867530E+00
(PID.TID 0000.0001) // =======================================================
(PID.TID 0000.0001) // End OBCS MONITOR field statistics
(PID.TID 0000.0001) // =======================================================
 cg2d: Sum(rhs),rhsMax =   3.01224769483481E+00  4.53052384115048E+02
(PID.TID 0000.0001)      cg2d_init_res =   2.03898505137487E-06
(PID.TID 0000.0001)      cg2d_iters(min,last) =      -1      66
(PID.TID 0000.0001)      cg2d_last_res =   7.86231968645071E-12
(PID.TID 0000.0001) // =======================================================
(PID.TID 0000.0001) // Begin MONITOR dynamic field statistics
(PID.TID 0000.0001) // =======================================================
(PID.TID 0000.0001) %MON time_tsnumber                =                   275
(PID.TID 0000.0001) %MON time_secondsf                =   2.7500000000000E+04
(PID.TID 0000.0001) %MON dynstat_eta_max              =   5.7962504268988E+00
(PID.TID 0000.0001) %MON dynstat_eta_min              =  -1.4177334213277E+01
(PID.TID 0000.0001) %MON dynstat_eta_mean             =  -2.5272333327592E+00
(PID.TID 0000.0001) %MON dynstat_eta_sd               =   4.9420286002168E+00
(PID.TID 0000.0001) %MON dynstat_eta_del2             =   1.9058058955393E-01
(PID.TID 0000.0001) %MON dynstat_uvel_max             =   1.9164395514490E-03
(PID.TID 0000.0001) %MON dynstat_uvel_min             =  -3.6200961690627E-03
(PID.TID 0000.0001) %MON dynstat_uvel_mean            =  -2.4481933988543E-10
(PID.TID 0000.0001) %MON dynstat_uvel_sd              =   9.1546672039021E-05
(PID.TID 0000.0001) %MON dynstat_uvel_del2            =   3.3154937286743E-07
(PID.TID 0000.0001) %MON dynstat_vvel_max             =   3.3178559259452E-03
(PID.TID 0000.0001) %MON dynstat_vvel_min             =  -1.6628474909517E-03
(PID.TID 0000.0001) %MON dynstat_vvel_mean            =  -5.3845308630920E-08
(PID.TID 0000.0001) %MON dynstat_vvel_sd              =   1.0082421022046E-04
(PID.TID 0000.0001) %MON dynstat_vvel_del2            =   3.7565752230945E-07
(PID.TID 0000.0001) %MON dynstat_wvel_max             =   1.9822772339507E-04
(PID.TID 0000.0001) %MON dynstat_wvel_min             =  -9.6583559739734E-05
(PID.TID 0000.0001) %MON dynstat_wvel_mean            =   9.1721972493226E-11
(PID.TID 0000.0001) %MON dynstat_wvel_sd              =   1.9530431087410E-05
(PID.TID 0000.0001) %MON dynstat_wvel_del2            =   9.8073003406071E-08
(PID.TID 0000.0001) %MON dynstat_theta_max            =   1.2000000000000E+00
(PID.TID 0000.0001) %MON dynstat_theta_min            =  -1.0000000000000E+00
(PID.TID 0000.0001) %MON dynstat_theta_mean           =   5.6544915231449E-01
(PID.TID 0000.0001) %MON dynstat_theta_sd             =   8.4905677188749E-01
(PID.TID 0000.0001) %MON dynstat_theta_del2           =   1.1737202899456E-06
(PID.TID 0000.0001) %MON dynstat_salt_max             =   3.4700000000000E+01
(PID.TID 0000.0001) %MON dynstat_salt_min             =   3.4000000000000E+01
(PID.TID 0000.0001) %MON dynstat_salt_mean            =   3.4498093065171E+01
(PID.TID 0000.0001) %MON dynstat_salt_sd              =   2.7015492768904E-01
(PID.TID 0000.0001) %MON dynstat_salt_del2            =   3.7577003595576E-07
(PID.TID 0000.0001) %MON advcfl_uvel_max              =   3.6200961690627E-04
(PID.TID 0000.0001) %MON advcfl_vvel_max              =   3.3178559259452E-04
(PID.TID 0000.0001) %MON advcfl_wvel_max              =   9.9113861697537E-04
(PID.TID 0000.0001) %MON advcfl_W_hf_max              =   9.9113861697537E-04
(PID.TID 0000.0001) %MON pe_b_mean                    =  -6.8286585882163E-01
(PID.TID 0000.0001) %MON ke_max                       =   5.5104428713669E-06
(PID.TID 0000.0001) %MON ke_mean                      =   9.1942194588032E-09
(PID.TID 0000.0001) %MON ke_vol                       =   4.6182882228422E+12
(PID.TID 0000.0001) // =======================================================
(PID.TID 0000.0001) // End MONITOR dynamic field statistics
(PID.TID 0000.0001) // =======================================================
(PID.TID 0000.0001) // =======================================================
(PID.TID 0000.0001) // Begin OBCS MONITOR field statistics
(PID.TID 0000.0001) // =======================================================
(PID.TID 0000.0001) %MON obc_N_vVel_max               =  -5.9426912948970E-08
(PID.TID 0000.0001) %MON obc_N_vVel_min               =  -5.9426912948971E-08
(PID.TID 0000.0001) %MON obc_N_vVel_mean              =  -5.9426912948970E-08
(PID.TID 0000.0001) %MON obc_N_vVel_sd                =  -2.0115953083136E-29
(PID.TID 0000.0001) %MON obc_N_vVel_Int               =  -3.9221762546320E+00
(PID.TID 0000.0001) // =======================================================
(PID.TID 0000.0001) // End OBCS MONITOR field statistics
(PID.TID 0000.0001) // =======================================================
 cg2d: Sum(rhs),rhsMax =   3.01224552470034E+00  4.53052372894641E+02
(PID.TID 0000.0001)      cg2d_init_res =   2.03556313883865E-06
(PID.TID 0000.0001)      cg2d_iters(min,last) =      -1      66
(PID.TID 0000.0001)      cg2d_last_res =   7.89777946349560E-12
(PID.TID 0000.0001) // =======================================================
(PID.TID 0000.0001) // Begin MONITOR dynamic field statistics
(PID.TID 0000.0001) // =======================================================
(PID.TID 0000.0001) %MON time_tsnumber                =                   276
(PID.TID 0000.0001) %MON time_secondsf                =   2.7600000000000E+04
(PID.TID 0000.0001) %MON dynstat_eta_max              =   5.7962530557432E+00
(PID.TID 0000.0001) %MON dynstat_eta_min              =  -1.4177328729884E+01
(PID.TID 0000.0001) %MON dynstat_eta_mean             =  -2.5272314494570E+00
(PID.TID 0000.0001) %MON dynstat_eta_sd               =   4.9420279785964E+00
(PID.TID 0000.0001) %MON dynstat_eta_del2             =   1.9058058965570E-01
(PID.TID 0000.0001) %MON dynstat_uvel_max             =   1.9047976844675E-03
(PID.TID 0000.0001) %MON dynstat_uvel_min             =  -3.6189576488439E-03
(PID.TID 0000.0001) %MON dynstat_uvel_mean            =  -2.7193016539166E-10
(PID.TID 0000.0001) %MON dynstat_uvel_sd              =   9.1825268305067E-05
(PID.TID 0000.0001) %MON dynstat_uvel_del2            =   3.3080267631704E-07
(PID.TID 0000.0001) %MON dynstat_vvel_max             =   3.3166641742577E-03
(PID.TID 0000.0001) %MON dynstat_vvel_min             =  -1.6645665527264E-03
(PID.TID 0000.0001) %MON dynstat_vvel_mean            =  -5.7524466439160E-08
(PID.TID 0000.0001) %MON dynstat_vvel_sd              =   1.0090401462727E-04
(PID.TID 0000.0001) %MON dynstat_vvel_del2            =   3.7483047924238E-07
(PID.TID 0000.0001) %MON dynstat_wvel_max             =   1.9772454444739E-04
(PID.TID 0000.0001) %MON dynstat_wvel_min             =  -9.9710516199326E-05
(PID.TID 0000.0001) %MON dynstat_wvel_mean            =   9.4279117321163E-11
(PID.TID 0000.0001) %MON dynstat_wvel_sd              =   1.9494938708711E-05
(PID.TID 0000.0001) %MON dynstat_wvel_del2            =   9.7905328496335E-08
(PID.TID 0000.0001) %MON dynstat_theta_max            =   1.2000000000000E+00
(PID.TID 0000.0001) %MON dynstat_theta_min            =  -1.0000000000000E+00
(PID.TID 0000.0001) %MON dynstat_theta_mean           =   5.6544894942316E-01
(PID.TID 0000.0001) %MON dynstat_theta_sd             =   8.4905672902963E-01
(PID.TID 0000.0001) %MON dynstat_theta_del2           =   1.1698222674843E-06
(PID.TID 0000.0001) %MON dynstat_salt_max             =   3.4700000000000E+01
(PID.TID 0000.0001) %MON dynstat_salt_min             =   3.4000000000000E+01
(PID.TID 0000.0001) %MON dynstat_salt_mean            =   3.4498092984710E+01
(PID.TID 0000.0001) %MON dynstat_salt_sd              =   2.7015491562678E-01
(PID.TID 0000.0001) %MON dynstat_salt_del2            =   3.7469631368966E-07
(PID.TID 0000.0001) %MON advcfl_uvel_max              =   3.6189576488439E-04
(PID.TID 0000.0001) %MON advcfl_vvel_max              =   3.3166641742577E-04
(PID.TID 0000.0001) %MON advcfl_wvel_max              =   9.8862272223696E-04
(PID.TID 0000.0001) %MON advcfl_W_hf_max              =   9.8862272223696E-04
(PID.TID 0000.0001) %MON pe_b_mean                    =  -6.8286536589158E-01
(PID.TID 0000.0001) %MON ke_max                       =   5.4985390371900E-06
(PID.TID 0000.0001) %MON ke_mean                      =   9.2273320068502E-09
(PID.TID 0000.0001) %MON ke_vol                       =   4.6182882340034E+12
(PID.TID 0000.0001) // =======================================================
(PID.TID 0000.0001) // End MONITOR dynamic field statistics
(PID.TID 0000.0001) // =======================================================
(PID.TID 0000.0001) // =======================================================
(PID.TID 0000.0001) // Begin OBCS MONITOR field statistics
(PID.TID 0000.0001) // =======================================================
(PID.TID 0000.0001) %MON obc_N_vVel_max               =  -6.3148474649975E-08
(PID.TID 0000.0001) %MON obc_N_vVel_min               =  -6.3148474649976E-08
(PID.TID 0000.0001) %MON obc_N_vVel_mean              =  -6.3148474649976E-08
(PID.TID 0000.0001) %MON obc_N_vVel_sd                =  -3.5498740734946E-29
(PID.TID 0000.0001) %MON obc_N_vVel_Int               =  -4.1677993268984E+00
(PID.TID 0000.0001) // =======================================================
(PID.TID 0000.0001) // End OBCS MONITOR field statistics
(PID.TID 0000.0001) // =======================================================
 cg2d: Sum(rhs),rhsMax =   3.01224335082970E+00  4.53052361496018E+02
(PID.TID 0000.0001)      cg2d_init_res =   2.03405675084938E-06
(PID.TID 0000.0001)      cg2d_iters(min,last) =      -1      66
(PID.TID 0000.0001)      cg2d_last_res =   7.95099403072534E-12
(PID.TID 0000.0001) // =======================================================
(PID.TID 0000.0001) // Begin MONITOR dynamic field statistics
(PID.TID 0000.0001) // =======================================================
(PID.TID 0000.0001) %MON time_tsnumber                =                   277
(PID.TID 0000.0001) %MON time_secondsf                =   2.7700000000000E+04
(PID.TID 0000.0001) %MON dynstat_eta_max              =   5.7962556976285E+00
(PID.TID 0000.0001) %MON dynstat_eta_min              =  -1.4177323244539E+01
(PID.TID 0000.0001) %MON dynstat_eta_mean             =  -2.5272295620261E+00
(PID.TID 0000.0001) %MON dynstat_eta_sd               =   4.9420273558547E+00
(PID.TID 0000.0001) %MON dynstat_eta_del2             =   1.9058058975872E-01
(PID.TID 0000.0001) %MON dynstat_uvel_max             =   1.8930794678873E-03
(PID.TID 0000.0001) %MON dynstat_uvel_min             =  -3.6177390488088E-03
(PID.TID 0000.0001) %MON dynstat_uvel_mean            =  -2.9987144517280E-10
(PID.TID 0000.0001) %MON dynstat_uvel_sd              =   9.2105785514126E-05
(PID.TID 0000.0001) %MON dynstat_uvel_del2            =   3.3006044122630E-07
(PID.TID 0000.0001) %MON dynstat_vvel_max             =   3.3154080429707E-03
(PID.TID 0000.0001) %MON dynstat_vvel_min             =  -1.6662515929404E-03
(PID.TID 0000.0001) %MON dynstat_vvel_mean            =  -6.0919072328238E-08
(PID.TID 0000.0001) %MON dynstat_vvel_sd              =   1.0098593428373E-04
(PID.TID 0000.0001) %MON dynstat_vvel_del2            =   3.7404165638856E-07
(PID.TID 0000.0001) %MON dynstat_wvel_max             =   1.9721723542299E-04
(PID.TID 0000.0001) %MON dynstat_wvel_min             =  -1.0296900833896E-04
(PID.TID 0000.0001) %MON dynstat_wvel_mean            =   9.7433414554002E-11
(PID.TID 0000.0001) %MON dynstat_wvel_sd              =   1.9464351288288E-05
(PID.TID 0000.0001) %MON dynstat_wvel_del2            =   9.7799698296577E-08
(PID.TID 0000.0001) %MON dynstat_theta_max            =   1.2000000000000E+00
(PID.TID 0000.0001) %MON dynstat_theta_min            =  -1.0000000000000E+00
(PID.TID 0000.0001) %MON dynstat_theta_mean           =   5.6544874650847E-01
(PID.TID 0000.0001) %MON dynstat_theta_sd             =   8.4905668616357E-01
(PID.TID 0000.0001) %MON dynstat_theta_del2           =   1.1659271541649E-06
(PID.TID 0000.0001) %MON dynstat_salt_max             =   3.4700000000000E+01
(PID.TID 0000.0001) %MON dynstat_salt_min             =   3.4000000000000E+01
(PID.TID 0000.0001) %MON dynstat_salt_mean            =   3.4498092904240E+01
(PID.TID 0000.0001) %MON dynstat_salt_sd              =   2.7015490355911E-01
(PID.TID 0000.0001) %MON dynstat_salt_del2            =   3.7362441882564E-07
(PID.TID 0000.0001) %MON advcfl_uvel_max              =   3.6177390488088E-04
(PID.TID 0000.0001) %MON advcfl_vvel_max              =   3.3154080429707E-04
(PID.TID 0000.0001) %MON advcfl_wvel_max              =   9.8608617711493E-04
(PID.TID 0000.0001) %MON advcfl_W_hf_max              =   9.8608617711493E-04
(PID.TID 0000.0001) %MON pe_b_mean                    =  -6.8286487219092E-01
(PID.TID 0000.0001) %MON ke_max                       =   5.4865153233005E-06
(PID.TID 0000.0001) %MON ke_mean                      =   9.2609142797249E-09
(PID.TID 0000.0001) %MON ke_vol                       =   4.6182882451902E+12
(PID.TID 0000.0001) // =======================================================
(PID.TID 0000.0001) // End MONITOR dynamic field statistics
(PID.TID 0000.0001) // =======================================================
(PID.TID 0000.0001) // =======================================================
(PID.TID 0000.0001) // Begin OBCS MONITOR field statistics
(PID.TID 0000.0001) // =======================================================
(PID.TID 0000.0001) %MON obc_N_vVel_max               =  -6.6687173059024E-08
(PID.TID 0000.0001) %MON obc_N_vVel_min               =  -6.6687173059026E-08
(PID.TID 0000.0001) %MON obc_N_vVel_mean              =  -6.6687173059024E-08
(PID.TID 0000.0001) %MON obc_N_vVel_sd                =   1.2434497875802E-14
(PID.TID 0000.0001) %MON obc_N_vVel_Int               =  -4.4013534218956E+00
(PID.TID 0000.0001) // =======================================================
(PID.TID 0000.0001) // End OBCS MONITOR field statistics
(PID.TID 0000.0001) // =======================================================
 cg2d: Sum(rhs),rhsMax =   3.01224117351998E+00  4.53052349916010E+02
(PID.TID 0000.0001)      cg2d_init_res =   2.03400314063652E-06
(PID.TID 0000.0001)      cg2d_iters(min,last) =      -1      66
(PID.TID 0000.0001)      cg2d_last_res =   8.02538255838663E-12
(PID.TID 0000.0001) // =======================================================
(PID.TID 0000.0001) // Begin MONITOR dynamic field statistics
(PID.TID 0000.0001) // =======================================================
(PID.TID 0000.0001) %MON time_tsnumber                =                   278
(PID.TID 0000.0001) %MON time_secondsf                =   2.7800000000000E+04
(PID.TID 0000.0001) %MON dynstat_eta_max              =   5.7962583518921E+00
(PID.TID 0000.0001) %MON dynstat_eta_min              =  -1.4177317757987E+01
(PID.TID 0000.0001) %MON dynstat_eta_mean             =  -2.5272276706981E+00
(PID.TID 0000.0001) %MON dynstat_eta_sd               =   4.9420267320900E+00
(PID.TID 0000.0001) %MON dynstat_eta_del2             =   1.9058058986269E-01
(PID.TID 0000.0001) %MON dynstat_uvel_max             =   1.8812858738499E-03
(PID.TID 0000.0001) %MON dynstat_uvel_min             =  -3.6164409412007E-03
(PID.TID 0000.0001) %MON dynstat_uvel_mean            =  -3.2738548819619E-10
(PID.TID 0000.0001) %MON dynstat_uvel_sd              =   9.2388204340299E-05
(PID.TID 0000.0001) %MON dynstat_uvel_del2            =   3.2932273145643E-07
(PID.TID 0000.0001) %MON dynstat_vvel_max             =   3.3140880155660E-03
(PID.TID 0000.0001) %MON dynstat_vvel_min             =  -1.6678987172138E-03
(PID.TID 0000.0001) %MON dynstat_vvel_mean            =  -6.4022651944677E-08
(PID.TID 0000.0001) %MON dynstat_vvel_sd              =   1.0106924442777E-04
(PID.TID 0000.0001) %MON dynstat_vvel_del2            =   3.7327699879251E-07
(PID.TID 0000.0001) %MON dynstat_wvel_max             =   1.9670585553049E-04
(PID.TID 0000.0001) %MON dynstat_wvel_min             =  -1.0399854771406E-04
(PID.TID 0000.0001) %MON dynstat_wvel_mean            =   1.0096597342775E-10
(PID.TID 0000.0001) %MON dynstat_wvel_sd              =   1.9436850667773E-05
(PID.TID 0000.0001) %MON dynstat_wvel_del2            =   9.7730334362648E-08
(PID.TID 0000.0001) %MON dynstat_theta_max            =   1.2000000000000E+00
(PID.TID 0000.0001) %MON dynstat_theta_min            =  -1.0000000000000E+00
(PID.TID 0000.0001) %MON dynstat_theta_mean           =   5.6544854356978E-01
(PID.TID 0000.0001) %MON dynstat_theta_sd             =   8.4905664331913E-01
(PID.TID 0000.0001) %MON dynstat_theta_del2           =   1.1620494319153E-06
(PID.TID 0000.0001) %MON dynstat_salt_max             =   3.4700000000000E+01
(PID.TID 0000.0001) %MON dynstat_salt_min             =   3.4000000000000E+01
(PID.TID 0000.0001) %MON dynstat_salt_mean            =   3.4498092823761E+01
(PID.TID 0000.0001) %MON dynstat_salt_sd              =   2.7015489149576E-01
(PID.TID 0000.0001) %MON dynstat_salt_del2            =   3.7255884885014E-07
(PID.TID 0000.0001) %MON advcfl_uvel_max              =   3.6164409412007E-04
(PID.TID 0000.0001) %MON advcfl_vvel_max              =   3.3140880155660E-04
(PID.TID 0000.0001) %MON advcfl_wvel_max              =   9.8352927765246E-04
(PID.TID 0000.0001) %MON advcfl_W_hf_max              =   9.8352927765246E-04
(PID.TID 0000.0001) %MON pe_b_mean                    =  -6.8286437777823E-01
(PID.TID 0000.0001) %MON ke_max                       =   5.4743753438475E-06
(PID.TID 0000.0001) %MON ke_mean                      =   9.2948933792966E-09
(PID.TID 0000.0001) %MON ke_vol                       =   4.6182882564016E+12
(PID.TID 0000.0001) // =======================================================
(PID.TID 0000.0001) // End MONITOR dynamic field statistics
(PID.TID 0000.0001) // =======================================================
(PID.TID 0000.0001) // =======================================================
(PID.TID 0000.0001) // Begin OBCS MONITOR field statistics
(PID.TID 0000.0001) // =======================================================
(PID.TID 0000.0001) %MON obc_N_vVel_max               =  -7.0011931959070E-08
(PID.TID 0000.0001) %MON obc_N_vVel_min               =  -7.0011931959071E-08
(PID.TID 0000.0001) %MON obc_N_vVel_mean              =  -7.0011931959071E-08
(PID.TID 0000.0001) %MON obc_N_vVel_sd                =  -1.5856104194942E-28
(PID.TID 0000.0001) %MON obc_N_vVel_Int               =  -4.6207875092987E+00
(PID.TID 0000.0001) // =======================================================
(PID.TID 0000.0001) // End OBCS MONITOR field statistics
(PID.TID 0000.0001) // =======================================================
 cg2d: Sum(rhs),rhsMax =   3.01223899305567E+00  4.53052338156344E+02
(PID.TID 0000.0001)      cg2d_init_res =   2.03478550399309E-06
(PID.TID 0000.0001)      cg2d_iters(min,last) =      -1      66
(PID.TID 0000.0001)      cg2d_last_res =   8.10891305475073E-12
(PID.TID 0000.0001) // =======================================================
(PID.TID 0000.0001) // Begin MONITOR dynamic field statistics
(PID.TID 0000.0001) // =======================================================
(PID.TID 0000.0001) %MON time_tsnumber                =                   279
(PID.TID 0000.0001) %MON time_secondsf                =   2.7900000000000E+04
(PID.TID 0000.0001) %MON dynstat_eta_max              =   5.7962610178710E+00
(PID.TID 0000.0001) %MON dynstat_eta_min              =  -1.4177312270911E+01
(PID.TID 0000.0001) %MON dynstat_eta_mean             =  -2.5272257757215E+00
(PID.TID 0000.0001) %MON dynstat_eta_sd               =   4.9420261073916E+00
(PID.TID 0000.0001) %MON dynstat_eta_del2             =   1.9058058996729E-01
(PID.TID 0000.0001) %MON dynstat_uvel_max             =   1.8694178695036E-03
(PID.TID 0000.0001) %MON dynstat_uvel_min             =  -3.6150638978196E-03
(PID.TID 0000.0001) %MON dynstat_uvel_mean            =  -3.5345714562297E-10
(PID.TID 0000.0001) %MON dynstat_uvel_sd              =   9.2672505256445E-05
(PID.TID 0000.0001) %MON dynstat_uvel_del2            =   3.2858960910245E-07
(PID.TID 0000.0001) %MON dynstat_vvel_max             =   3.3127045644008E-03
(PID.TID 0000.0001) %MON dynstat_vvel_min             =  -1.6695040625994E-03
(PID.TID 0000.0001) %MON dynstat_vvel_mean            =  -6.6847494359587E-08
(PID.TID 0000.0001) %MON dynstat_vvel_sd              =   1.0115308191034E-04
(PID.TID 0000.0001) %MON dynstat_vvel_del2            =   3.7252021009650E-07
(PID.TID 0000.0001) %MON dynstat_wvel_max             =   1.9619046416857E-04
(PID.TID 0000.0001) %MON dynstat_wvel_min             =  -1.0279865493742E-04
(PID.TID 0000.0001) %MON dynstat_wvel_mean            =   1.0467748137984E-10
(PID.TID 0000.0001) %MON dynstat_wvel_sd              =   1.9410287887642E-05
(PID.TID 0000.0001) %MON dynstat_wvel_del2            =   9.7667607671284E-08
(PID.TID 0000.0001) %MON dynstat_theta_max            =   1.2000000000000E+00
(PID.TID 0000.0001) %MON dynstat_theta_min            =  -1.0000000000000E+00
(PID.TID 0000.0001) %MON dynstat_theta_mean           =   5.6544834060676E-01
(PID.TID 0000.0001) %MON dynstat_theta_sd             =   8.4905660052104E-01
(PID.TID 0000.0001) %MON dynstat_theta_del2           =   1.1582043985317E-06
(PID.TID 0000.0001) %MON dynstat_salt_max             =   3.4700000000000E+01
(PID.TID 0000.0001) %MON dynstat_salt_min             =   3.4000000000000E+01
(PID.TID 0000.0001) %MON dynstat_salt_mean            =   3.4498092743272E+01
(PID.TID 0000.0001) %MON dynstat_salt_sd              =   2.7015487944432E-01
(PID.TID 0000.0001) %MON dynstat_salt_del2            =   3.7150445849915E-07
(PID.TID 0000.0001) %MON advcfl_uvel_max              =   3.6150638978196E-04
(PID.TID 0000.0001) %MON advcfl_vvel_max              =   3.3127045644008E-04
(PID.TID 0000.0001) %MON advcfl_wvel_max              =   9.8095232084283E-04
(PID.TID 0000.0001) %MON advcfl_W_hf_max              =   9.8095232084283E-04
(PID.TID 0000.0001) %MON pe_b_mean                    =  -6.8286388270995E-01
(PID.TID 0000.0001) %MON ke_max                       =   5.4621226712775E-06
(PID.TID 0000.0001) %MON ke_mean                      =   9.3291821489473E-09
(PID.TID 0000.0001) %MON ke_vol                       =   4.6182882676361E+12
(PID.TID 0000.0001) // =======================================================
(PID.TID 0000.0001) // End MONITOR dynamic field statistics
(PID.TID 0000.0001) // =======================================================
(PID.TID 0000.0001) // =======================================================
(PID.TID 0000.0001) // Begin OBCS MONITOR field statistics
(PID.TID 0000.0001) // =======================================================
(PID.TID 0000.0001) %MON obc_N_vVel_max               =  -7.3110181330945E-08
(PID.TID 0000.0001) %MON obc_N_vVel_min               =  -7.3110181330945E-08
(PID.TID 0000.0001) %MON obc_N_vVel_mean              =  -7.3110181330945E-08
(PID.TID 0000.0001) %MON obc_N_vVel_sd                =   7.5364438016821E-15
(PID.TID 0000.0001) %MON obc_N_vVel_Int               =  -4.8252719678424E+00
(PID.TID 0000.0001) // =======================================================
(PID.TID 0000.0001) // End OBCS MONITOR field statistics
(PID.TID 0000.0001) // =======================================================
 cg2d: Sum(rhs),rhsMax =   3.01223680966902E+00  4.53052326224307E+02
(PID.TID 0000.0001)      cg2d_init_res =   2.03570325216242E-06
(PID.TID 0000.0001)      cg2d_iters(min,last) =      -1      66
(PID.TID 0000.0001)      cg2d_last_res =   8.17729369641265E-12
(PID.TID 0000.0001) // =======================================================
(PID.TID 0000.0001) // Begin MONITOR dynamic field statistics
(PID.TID 0000.0001) // =======================================================
(PID.TID 0000.0001) %MON time_tsnumber                =                   280
(PID.TID 0000.0001) %MON time_secondsf                =   2.8000000000000E+04
(PID.TID 0000.0001) %MON dynstat_eta_max              =   5.7962636949035E+00
(PID.TID 0000.0001) %MON dynstat_eta_min              =  -1.4177306783909E+01
(PID.TID 0000.0001) %MON dynstat_eta_mean             =  -2.5272238773316E+00
(PID.TID 0000.0001) %MON dynstat_eta_sd               =   4.9420254818437E+00
(PID.TID 0000.0001) %MON dynstat_eta_del2             =   1.9058059007287E-01
(PID.TID 0000.0001) %MON dynstat_uvel_max             =   1.8574764170829E-03
(PID.TID 0000.0001) %MON dynstat_uvel_min             =  -3.6136084901612E-03
(PID.TID 0000.0001) %MON dynstat_uvel_mean            =  -3.7731249018290E-10
(PID.TID 0000.0001) %MON dynstat_uvel_sd              =   9.2958669262706E-05
(PID.TID 0000.0001) %MON dynstat_uvel_del2            =   3.2786113643625E-07
(PID.TID 0000.0001) %MON dynstat_vvel_max             =   3.3112581530723E-03
(PID.TID 0000.0001) %MON dynstat_vvel_min             =  -1.6710637725410E-03
(PID.TID 0000.0001) %MON dynstat_vvel_mean            =  -6.9420102995057E-08
(PID.TID 0000.0001) %MON dynstat_vvel_sd              =   1.0123656480918E-04
(PID.TID 0000.0001) %MON dynstat_vvel_del2            =   3.7175504659382E-07
(PID.TID 0000.0001) %MON dynstat_wvel_max             =   1.9567112088904E-04
(PID.TID 0000.0001) %MON dynstat_wvel_min             =  -9.9417710281045E-05
(PID.TID 0000.0001) %MON dynstat_wvel_mean            =   1.0839285774039E-10
(PID.TID 0000.0001) %MON dynstat_wvel_sd              =   1.9382477906675E-05
(PID.TID 0000.0001) %MON dynstat_wvel_del2            =   9.7582128409144E-08
(PID.TID 0000.0001) %MON dynstat_theta_max            =   1.2000000000000E+00
(PID.TID 0000.0001) %MON dynstat_theta_min            =  -1.0000000000000E+00
(PID.TID 0000.0001) %MON dynstat_theta_mean           =   5.6544813761799E-01
(PID.TID 0000.0001) %MON dynstat_theta_sd             =   8.4905655773732E-01
(PID.TID 0000.0001) %MON dynstat_theta_del2           =   1.1544064923558E-06
(PID.TID 0000.0001) %MON dynstat_salt_max             =   3.4700000000000E+01
(PID.TID 0000.0001) %MON dynstat_salt_min             =   3.4000000000000E+01
(PID.TID 0000.0001) %MON dynstat_salt_mean            =   3.4498092662772E+01
(PID.TID 0000.0001) %MON dynstat_salt_sd              =   2.7015486739492E-01
(PID.TID 0000.0001) %MON dynstat_salt_del2            =   3.7046578887492E-07
(PID.TID 0000.0001) %MON advcfl_uvel_max              =   3.6136084901612E-04
(PID.TID 0000.0001) %MON advcfl_vvel_max              =   3.3112581530723E-04
(PID.TID 0000.0001) %MON advcfl_wvel_max              =   9.7835560444519E-04
(PID.TID 0000.0001) %MON advcfl_W_hf_max              =   9.7835560444519E-04
(PID.TID 0000.0001) %MON pe_b_mean                    =  -6.8286338703435E-01
(PID.TID 0000.0001) %MON ke_max                       =   5.4497608392527E-06
(PID.TID 0000.0001) %MON ke_mean                      =   9.3636912826922E-09
(PID.TID 0000.0001) %MON ke_vol                       =   4.6182882788922E+12
(PID.TID 0000.0001) // =======================================================
(PID.TID 0000.0001) // End MONITOR dynamic field statistics
(PID.TID 0000.0001) // =======================================================
(PID.TID 0000.0001) // =======================================================
(PID.TID 0000.0001) // Begin OBCS MONITOR field statistics
(PID.TID 0000.0001) // =======================================================
(PID.TID 0000.0001) %MON obc_N_vVel_max               =  -7.5984719963904E-08
(PID.TID 0000.0001) %MON obc_N_vVel_min               =  -7.5984719963905E-08
(PID.TID 0000.0001) %MON obc_N_vVel_mean              =  -7.5984719963905E-08
(PID.TID 0000.0001) %MON obc_N_vVel_sd                =  -5.5220263365471E-30
(PID.TID 0000.0001) %MON obc_N_vVel_Int               =  -5.0149915176177E+00
(PID.TID 0000.0001) // =======================================================
(PID.TID 0000.0001) // End OBCS MONITOR field statistics
(PID.TID 0000.0001) // =======================================================
 cg2d: Sum(rhs),rhsMax =   3.01223462354432E+00  4.53052314132795E+02
(PID.TID 0000.0001)      cg2d_init_res =   2.03606065587343E-06
(PID.TID 0000.0001)      cg2d_iters(min,last) =      -1      66
(PID.TID 0000.0001)      cg2d_last_res =   8.20919254112753E-12
(PID.TID 0000.0001) // =======================================================
(PID.TID 0000.0001) // Begin MONITOR dynamic field statistics
(PID.TID 0000.0001) // =======================================================
(PID.TID 0000.0001) %MON time_tsnumber                =                   281
(PID.TID 0000.0001) %MON time_secondsf                =   2.8100000000000E+04
(PID.TID 0000.0001) %MON dynstat_eta_max              =   5.7962663823170E+00
(PID.TID 0000.0001) %MON dynstat_eta_min              =  -1.4177301297437E+01
(PID.TID 0000.0001) %MON dynstat_eta_mean             =  -2.5272219757550E+00
(PID.TID 0000.0001) %MON dynstat_eta_sd               =   4.9420248555095E+00
(PID.TID 0000.0001) %MON dynstat_eta_del2             =   1.9058059017954E-01
(PID.TID 0000.0001) %MON dynstat_uvel_max             =   1.8454624751669E-03
(PID.TID 0000.0001) %MON dynstat_uvel_min             =  -3.6120752890896E-03
(PID.TID 0000.0001) %MON dynstat_uvel_mean            =  -3.9844199794770E-10
(PID.TID 0000.0001) %MON dynstat_uvel_sd              =   9.3246677731336E-05
(PID.TID 0000.0001) %MON dynstat_uvel_del2            =   3.2713737611421E-07
(PID.TID 0000.0001) %MON dynstat_vvel_max             =   3.3097492390803E-03
(PID.TID 0000.0001) %MON dynstat_vvel_min             =  -1.6725740550498E-03
(PID.TID 0000.0001) %MON dynstat_vvel_mean            =  -7.1776306859292E-08
(PID.TID 0000.0001) %MON dynstat_vvel_sd              =   1.0131891067882E-04
(PID.TID 0000.0001) %MON dynstat_vvel_del2            =   3.7096753521687E-07
(PID.TID 0000.0001) %MON dynstat_wvel_max             =   1.9514788479883E-04
(PID.TID 0000.0001) %MON dynstat_wvel_min             =  -9.8885187007098E-05
(PID.TID 0000.0001) %MON dynstat_wvel_mean            =   1.1197107836066E-10
(PID.TID 0000.0001) %MON dynstat_wvel_sd              =   1.9351488656135E-05
(PID.TID 0000.0001) %MON dynstat_wvel_del2            =   9.7448600734923E-08
(PID.TID 0000.0001) %MON dynstat_theta_max            =   1.2000000000000E+00
(PID.TID 0000.0001) %MON dynstat_theta_min            =  -1.0000000000000E+00
(PID.TID 0000.0001) %MON dynstat_theta_mean           =   5.6544793460293E-01
(PID.TID 0000.0001) %MON dynstat_theta_sd             =   8.4905651492648E-01
(PID.TID 0000.0001) %MON dynstat_theta_del2           =   1.1506681349920E-06
(PID.TID 0000.0001) %MON dynstat_salt_max             =   3.4700000000000E+01
(PID.TID 0000.0001) %MON dynstat_salt_min             =   3.4000000000000E+01
(PID.TID 0000.0001) %MON dynstat_salt_mean            =   3.4498092582263E+01
(PID.TID 0000.0001) %MON dynstat_salt_sd              =   2.7015485533407E-01
(PID.TID 0000.0001) %MON dynstat_salt_del2            =   3.6944668565175E-07
(PID.TID 0000.0001) %MON advcfl_uvel_max              =   3.6120752890896E-04
(PID.TID 0000.0001) %MON advcfl_vvel_max              =   3.3097492390803E-04
(PID.TID 0000.0001) %MON advcfl_wvel_max              =   9.7573942399416E-04
(PID.TID 0000.0001) %MON advcfl_W_hf_max              =   9.7573942399416E-04
(PID.TID 0000.0001) %MON pe_b_mean                    =  -6.8286289079386E-01
(PID.TID 0000.0001) %MON ke_max                       =   5.4372933472122E-06
(PID.TID 0000.0001) %MON ke_mean                      =   9.3983412832973E-09
(PID.TID 0000.0001) %MON ke_vol                       =   4.6182882901687E+12
(PID.TID 0000.0001) // =======================================================
(PID.TID 0000.0001) // End MONITOR dynamic field statistics
(PID.TID 0000.0001) // =======================================================
(PID.TID 0000.0001) // =======================================================
(PID.TID 0000.0001) // Begin OBCS MONITOR field statistics
(PID.TID 0000.0001) // =======================================================
(PID.TID 0000.0001) %MON obc_N_vVel_max               =  -7.8650297179457E-08
(PID.TID 0000.0001) %MON obc_N_vVel_min               =  -7.8650297179459E-08
(PID.TID 0000.0001) %MON obc_N_vVel_mean              =  -7.8650297179459E-08
(PID.TID 0000.0001) %MON obc_N_vVel_sd                =  -2.8635650859523E-28
(PID.TID 0000.0001) %MON obc_N_vVel_Int               =  -5.1909196138443E+00
(PID.TID 0000.0001) // =======================================================
(PID.TID 0000.0001) // End OBCS MONITOR field statistics
(PID.TID 0000.0001) // =======================================================
 cg2d: Sum(rhs),rhsMax =   3.01223243479815E+00  4.53052301899875E+02
(PID.TID 0000.0001)      cg2d_init_res =   2.03526973676658E-06
(PID.TID 0000.0001)      cg2d_iters(min,last) =      -1      66
(PID.TID 0000.0001)      cg2d_last_res =   8.21147607926921E-12
(PID.TID 0000.0001) // =======================================================
(PID.TID 0000.0001) // Begin MONITOR dynamic field statistics
(PID.TID 0000.0001) // =======================================================
(PID.TID 0000.0001) %MON time_tsnumber                =                   282
(PID.TID 0000.0001) %MON time_secondsf                =   2.8200000000000E+04
(PID.TID 0000.0001) %MON dynstat_eta_max              =   5.7962690794232E+00
(PID.TID 0000.0001) %MON dynstat_eta_min              =  -1.4177295811783E+01
(PID.TID 0000.0001) %MON dynstat_eta_mean             =  -2.5272200711903E+00
(PID.TID 0000.0001) %MON dynstat_eta_sd               =   4.9420242284371E+00
(PID.TID 0000.0001) %MON dynstat_eta_del2             =   1.9058059028733E-01
(PID.TID 0000.0001) %MON dynstat_uvel_max             =   1.8333769980092E-03
(PID.TID 0000.0001) %MON dynstat_uvel_min             =  -3.6104648649979E-03
(PID.TID 0000.0001) %MON dynstat_uvel_mean            =  -4.1657181668044E-10
(PID.TID 0000.0001) %MON dynstat_uvel_sd              =   9.3536512467040E-05
(PID.TID 0000.0001) %MON dynstat_uvel_del2            =   3.2641839138166E-07
(PID.TID 0000.0001) %MON dynstat_vvel_max             =   3.3081782762991E-03
(PID.TID 0000.0001) %MON dynstat_vvel_min             =  -1.6740311568864E-03
(PID.TID 0000.0001) %MON dynstat_vvel_mean            =  -7.3956505002259E-08
(PID.TID 0000.0001) %MON dynstat_vvel_sd              =   1.0139953755743E-04
(PID.TID 0000.0001) %MON dynstat_vvel_del2            =   3.7014782836533E-07
(PID.TID 0000.0001) %MON dynstat_wvel_max             =   1.9462081421075E-04
(PID.TID 0000.0001) %MON dynstat_wvel_min             =  -9.9983617405441E-05
(PID.TID 0000.0001) %MON dynstat_wvel_mean            =   1.1530847566450E-10
(PID.TID 0000.0001) %MON dynstat_wvel_sd              =   1.9315887008849E-05
(PID.TID 0000.0001) %MON dynstat_wvel_del2            =   9.7248966715657E-08
(PID.TID 0000.0001) %MON dynstat_theta_max            =   1.2000000000000E+00
(PID.TID 0000.0001) %MON dynstat_theta_min            =  -1.0000000000000E+00
(PID.TID 0000.0001) %MON dynstat_theta_mean           =   5.6544773156069E-01
(PID.TID 0000.0001) %MON dynstat_theta_sd             =   8.4905647205693E-01
(PID.TID 0000.0001) %MON dynstat_theta_del2           =   1.1469965222450E-06
(PID.TID 0000.0001) %MON dynstat_salt_max             =   3.4700000000000E+01
(PID.TID 0000.0001) %MON dynstat_salt_min             =   3.4000000000000E+01
(PID.TID 0000.0001) %MON dynstat_salt_mean            =   3.4498092501742E+01
(PID.TID 0000.0001) %MON dynstat_salt_sd              =   2.7015484325195E-01
(PID.TID 0000.0001) %MON dynstat_salt_del2            =   3.6844937129085E-07
(PID.TID 0000.0001) %MON advcfl_uvel_max              =   3.6104648649979E-04
(PID.TID 0000.0001) %MON advcfl_vvel_max              =   3.3081782762991E-04
(PID.TID 0000.0001) %MON advcfl_wvel_max              =   9.7310407105375E-04
(PID.TID 0000.0001) %MON advcfl_W_hf_max              =   9.7310407105375E-04
(PID.TID 0000.0001) %MON pe_b_mean                    =  -6.8286239402177E-01
(PID.TID 0000.0001) %MON ke_max                       =   5.4247236640448E-06
(PID.TID 0000.0001) %MON ke_mean                      =   9.4330727562420E-09
(PID.TID 0000.0001) %MON ke_vol                       =   4.6182883014640E+12
(PID.TID 0000.0001) // =======================================================
(PID.TID 0000.0001) // End MONITOR dynamic field statistics
(PID.TID 0000.0001) // =======================================================
(PID.TID 0000.0001) // =======================================================
(PID.TID 0000.0001) // Begin OBCS MONITOR field statistics
(PID.TID 0000.0001) // =======================================================
(PID.TID 0000.0001) %MON obc_N_vVel_max               =  -8.1129527789859E-08
(PID.TID 0000.0001) %MON obc_N_vVel_min               =  -8.1129527789861E-08
(PID.TID 0000.0001) %MON obc_N_vVel_mean              =  -8.1129527789861E-08
(PID.TID 0000.0001) %MON obc_N_vVel_sd                =  -6.6264316038565E-29
(PID.TID 0000.0001) %MON obc_N_vVel_Int               =  -5.3545488341308E+00
(PID.TID 0000.0001) // =======================================================
(PID.TID 0000.0001) // End OBCS MONITOR field statistics
(PID.TID 0000.0001) // =======================================================
 cg2d: Sum(rhs),rhsMax =   3.01223024347073E+00  4.53052289549065E+02
(PID.TID 0000.0001)      cg2d_init_res =   2.03293595633682E-06
(PID.TID 0000.0001)      cg2d_iters(min,last) =      -1      66
(PID.TID 0000.0001)      cg2d_last_res =   8.21482430691095E-12
(PID.TID 0000.0001) // =======================================================
(PID.TID 0000.0001) // Begin MONITOR dynamic field statistics
(PID.TID 0000.0001) // =======================================================
(PID.TID 0000.0001) %MON time_tsnumber                =                   283
(PID.TID 0000.0001) %MON time_secondsf                =   2.8300000000000E+04
(PID.TID 0000.0001) %MON dynstat_eta_max              =   5.7962717855430E+00
(PID.TID 0000.0001) %MON dynstat_eta_min              =  -1.4177290327090E+01
(PID.TID 0000.0001) %MON dynstat_eta_mean             =  -2.5272181638025E+00
(PID.TID 0000.0001) %MON dynstat_eta_sd               =   4.9420236006494E+00
(PID.TID 0000.0001) %MON dynstat_eta_del2             =   1.9058059039615E-01
(PID.TID 0000.0001) %MON dynstat_uvel_max             =   1.8212209358968E-03
(PID.TID 0000.0001) %MON dynstat_uvel_min             =  -3.6087777881728E-03
(PID.TID 0000.0001) %MON dynstat_uvel_mean            =  -4.3168650116828E-10
(PID.TID 0000.0001) %MON dynstat_uvel_sd              =   9.3828155811012E-05
(PID.TID 0000.0001) %MON dynstat_uvel_del2            =   3.2570424652555E-07
(PID.TID 0000.0001) %MON dynstat_vvel_max             =   3.3065457180692E-03
(PID.TID 0000.0001) %MON dynstat_vvel_min             =  -1.6754313670031E-03
(PID.TID 0000.0001) %MON dynstat_vvel_mean            =  -7.6001091265578E-08
(PID.TID 0000.0001) %MON dynstat_vvel_sd              =   1.0147813516952E-04
(PID.TID 0000.0001) %MON dynstat_vvel_del2            =   3.6929146010290E-07
(PID.TID 0000.0001) %MON dynstat_wvel_max             =   1.9408996682085E-04
(PID.TID 0000.0001) %MON dynstat_wvel_min             =  -9.9436989956018E-05
(PID.TID 0000.0001) %MON dynstat_wvel_mean            =   1.1833708041480E-10
(PID.TID 0000.0001) %MON dynstat_wvel_sd              =   1.9274911853236E-05
(PID.TID 0000.0001) %MON dynstat_wvel_del2            =   9.6974497786598E-08
(PID.TID 0000.0001) %MON dynstat_theta_max            =   1.2000000000000E+00
(PID.TID 0000.0001) %MON dynstat_theta_min            =  -1.0000000000000E+00
(PID.TID 0000.0001) %MON dynstat_theta_mean           =   5.6544752848987E-01
(PID.TID 0000.0001) %MON dynstat_theta_sd             =   8.4905642910200E-01
(PID.TID 0000.0001) %MON dynstat_theta_del2           =   1.1433930420972E-06
(PID.TID 0000.0001) %MON dynstat_salt_max             =   3.4700000000000E+01
(PID.TID 0000.0001) %MON dynstat_salt_min             =   3.4000000000000E+01
(PID.TID 0000.0001) %MON dynstat_salt_mean            =   3.4498092421211E+01
(PID.TID 0000.0001) %MON dynstat_salt_sd              =   2.7015483114003E-01
(PID.TID 0000.0001) %MON dynstat_salt_del2            =   3.6747426606795E-07
(PID.TID 0000.0001) %MON advcfl_uvel_max              =   3.6087777881728E-04
(PID.TID 0000.0001) %MON advcfl_vvel_max              =   3.3065457180692E-04
(PID.TID 0000.0001) %MON advcfl_wvel_max              =   9.7044983410424E-04
(PID.TID 0000.0001) %MON advcfl_W_hf_max              =   9.7044983410424E-04
(PID.TID 0000.0001) %MON pe_b_mean                    =  -6.8286189674060E-01
(PID.TID 0000.0001) %MON ke_max                       =   5.4120552326352E-06
(PID.TID 0000.0001) %MON ke_mean                      =   9.4678537346285E-09
(PID.TID 0000.0001) %MON ke_vol                       =   4.6182883127771E+12
(PID.TID 0000.0001) // =======================================================
(PID.TID 0000.0001) // End MONITOR dynamic field statistics
(PID.TID 0000.0001) // =======================================================
(PID.TID 0000.0001) // =======================================================
(PID.TID 0000.0001) // Begin OBCS MONITOR field statistics
(PID.TID 0000.0001) // =======================================================
(PID.TID 0000.0001) %MON obc_N_vVel_max               =  -8.3448552524975E-08
(PID.TID 0000.0001) %MON obc_N_vVel_min               =  -8.3448552524977E-08
(PID.TID 0000.0001) %MON obc_N_vVel_mean              =  -8.3448552524977E-08
(PID.TID 0000.0001) %MON obc_N_vVel_sd                =  -4.8357173490048E-28
(PID.TID 0000.0001) %MON obc_N_vVel_Int               =  -5.5076044666485E+00
(PID.TID 0000.0001) // =======================================================
(PID.TID 0000.0001) // End OBCS MONITOR field statistics
(PID.TID 0000.0001) // =======================================================
 cg2d: Sum(rhs),rhsMax =   3.01222804953609E+00  4.53052277108880E+02
(PID.TID 0000.0001)      cg2d_init_res =   2.02884448661341E-06
(PID.TID 0000.0001)      cg2d_iters(min,last) =      -1      66
(PID.TID 0000.0001)      cg2d_last_res =   8.23955990562829E-12
(PID.TID 0000.0001) // =======================================================
(PID.TID 0000.0001) // Begin MONITOR dynamic field statistics
(PID.TID 0000.0001) // =======================================================
(PID.TID 0000.0001) %MON time_tsnumber                =                   284
(PID.TID 0000.0001) %MON time_secondsf                =   2.8400000000000E+04
(PID.TID 0000.0001) %MON dynstat_eta_max              =   5.7962745000180E+00
(PID.TID 0000.0001) %MON dynstat_eta_min              =  -1.4177284843374E+01
(PID.TID 0000.0001) %MON dynstat_eta_mean             =  -2.5272162537288E+00
(PID.TID 0000.0001) %MON dynstat_eta_sd               =   4.9420229721737E+00
(PID.TID 0000.0001) %MON dynstat_eta_del2             =   1.9058059050651E-01
(PID.TID 0000.0001) %MON dynstat_uvel_max             =   1.8089952350895E-03
(PID.TID 0000.0001) %MON dynstat_uvel_min             =  -3.6070146287968E-03
(PID.TID 0000.0001) %MON dynstat_uvel_mean            =  -4.4398317991250E-10
(PID.TID 0000.0001) %MON dynstat_uvel_sd              =   9.4121590680346E-05
(PID.TID 0000.0001) %MON dynstat_uvel_del2            =   3.2499500712021E-07
(PID.TID 0000.0001) %MON dynstat_vvel_max             =   3.3048520235344E-03
(PID.TID 0000.0001) %MON dynstat_vvel_min             =  -1.6767710193744E-03
(PID.TID 0000.0001) %MON dynstat_vvel_mean            =  -7.7946264220569E-08
(PID.TID 0000.0001) %MON dynstat_vvel_sd              =   1.0155469806496E-04
(PID.TID 0000.0001) %MON dynstat_vvel_del2            =   3.6839986266879E-07
(PID.TID 0000.0001) %MON dynstat_wvel_max             =   1.9355540005375E-04
(PID.TID 0000.0001) %MON dynstat_wvel_min             =  -9.7239387922500E-05
(PID.TID 0000.0001) %MON dynstat_wvel_mean            =   1.2102227879303E-10
(PID.TID 0000.0001) %MON dynstat_wvel_sd              =   1.9228555966727E-05
(PID.TID 0000.0001) %MON dynstat_wvel_del2            =   9.6626655709142E-08
(PID.TID 0000.0001) %MON dynstat_theta_max            =   1.2000000000000E+00
(PID.TID 0000.0001) %MON dynstat_theta_min            =  -1.0000000000000E+00
(PID.TID 0000.0001) %MON dynstat_theta_mean           =   5.6544732538918E-01
(PID.TID 0000.0001) %MON dynstat_theta_sd             =   8.4905638608862E-01
(PID.TID 0000.0001) %MON dynstat_theta_del2           =   1.1398535202871E-06
(PID.TID 0000.0001) %MON dynstat_salt_max             =   3.4700000000000E+01
(PID.TID 0000.0001) %MON dynstat_salt_min             =   3.4000000000000E+01
(PID.TID 0000.0001) %MON dynstat_salt_mean            =   3.4498092340667E+01
(PID.TID 0000.0001) %MON dynstat_salt_sd              =   2.7015481900677E-01
(PID.TID 0000.0001) %MON dynstat_salt_del2            =   3.6651999410319E-07
(PID.TID 0000.0001) %MON advcfl_uvel_max              =   3.6070146287968E-04
(PID.TID 0000.0001) %MON advcfl_vvel_max              =   3.3048520235344E-04
(PID.TID 0000.0001) %MON advcfl_wvel_max              =   9.6777700026873E-04
(PID.TID 0000.0001) %MON advcfl_W_hf_max              =   9.6777700026873E-04
(PID.TID 0000.0001) %MON pe_b_mean                    =  -6.8286139896702E-01
(PID.TID 0000.0001) %MON ke_max                       =   5.3992914772174E-06
(PID.TID 0000.0001) %MON ke_mean                      =   9.5026831633919E-09
(PID.TID 0000.0001) %MON ke_vol                       =   4.6182883241070E+12
(PID.TID 0000.0001) // =======================================================
(PID.TID 0000.0001) // End MONITOR dynamic field statistics
(PID.TID 0000.0001) // =======================================================
(PID.TID 0000.0001) // =======================================================
(PID.TID 0000.0001) // Begin OBCS MONITOR field statistics
(PID.TID 0000.0001) // =======================================================
(PID.TID 0000.0001) %MON obc_N_vVel_max               =  -8.5633178558808E-08
(PID.TID 0000.0001) %MON obc_N_vVel_min               =  -8.5633178558809E-08
(PID.TID 0000.0001) %MON obc_N_vVel_mean              =  -8.5633178558808E-08
(PID.TID 0000.0001) %MON obc_N_vVel_sd                =   1.8071757378891E-14
(PID.TID 0000.0001) %MON obc_N_vVel_Int               =  -5.6517897848814E+00
(PID.TID 0000.0001) // =======================================================
(PID.TID 0000.0001) // End OBCS MONITOR field statistics
(PID.TID 0000.0001) // =======================================================
 cg2d: Sum(rhs),rhsMax =   3.01222585290935E+00  4.53052264612183E+02
(PID.TID 0000.0001)      cg2d_init_res =   2.02301462245385E-06
(PID.TID 0000.0001)      cg2d_iters(min,last) =      -1      65
(PID.TID 0000.0001)      cg2d_last_res =   9.97916577371920E-12
(PID.TID 0000.0001) // =======================================================
(PID.TID 0000.0001) // Begin MONITOR dynamic field statistics
(PID.TID 0000.0001) // =======================================================
(PID.TID 0000.0001) %MON time_tsnumber                =                   285
(PID.TID 0000.0001) %MON time_secondsf                =   2.8500000000000E+04
(PID.TID 0000.0001) %MON dynstat_eta_max              =   5.7962772220172E+00
(PID.TID 0000.0001) %MON dynstat_eta_min              =  -1.4177279361078E+01
(PID.TID 0000.0001) %MON dynstat_eta_mean             =  -2.5272143410814E+00
(PID.TID 0000.0001) %MON dynstat_eta_sd               =   4.9420223430444E+00
(PID.TID 0000.0001) %MON dynstat_eta_del2             =   1.9058059062021E-01
(PID.TID 0000.0001) %MON dynstat_uvel_max             =   1.7967008381614E-03
(PID.TID 0000.0001) %MON dynstat_uvel_min             =  -3.6051759541669E-03
(PID.TID 0000.0001) %MON dynstat_uvel_mean            =  -4.5387845108760E-10
(PID.TID 0000.0001) %MON dynstat_uvel_sd              =   9.4416800556178E-05
(PID.TID 0000.0001) %MON dynstat_uvel_del2            =   3.2429074010335E-07
(PID.TID 0000.0001) %MON dynstat_vvel_max             =   3.3030976488533E-03
(PID.TID 0000.0001) %MON dynstat_vvel_min             =  -1.6780464865231E-03
(PID.TID 0000.0001) %MON dynstat_vvel_mean            =  -7.9820033631912E-08
(PID.TID 0000.0001) %MON dynstat_vvel_sd              =   1.0162951638906E-04
(PID.TID 0000.0001) %MON dynstat_vvel_del2            =   3.6748007780029E-07
(PID.TID 0000.0001) %MON dynstat_wvel_max             =   1.9301718226568E-04
(PID.TID 0000.0001) %MON dynstat_wvel_min             =  -9.3413398631038E-05
(PID.TID 0000.0001) %MON dynstat_wvel_mean            =   1.2336042052402E-10
(PID.TID 0000.0001) %MON dynstat_wvel_sd              =   1.9177546768856E-05
(PID.TID 0000.0001) %MON dynstat_wvel_del2            =   9.6216653036131E-08
(PID.TID 0000.0001) %MON dynstat_theta_max            =   1.2000000000000E+00
(PID.TID 0000.0001) %MON dynstat_theta_min            =  -1.0000000000000E+00
(PID.TID 0000.0001) %MON dynstat_theta_mean           =   5.6544712225730E-01
(PID.TID 0000.0001) %MON dynstat_theta_sd             =   8.4905634305793E-01
(PID.TID 0000.0001) %MON dynstat_theta_del2           =   1.1363695053304E-06
(PID.TID 0000.0001) %MON dynstat_salt_max             =   3.4700000000000E+01
(PID.TID 0000.0001) %MON dynstat_salt_min             =   3.4000000000000E+01
(PID.TID 0000.0001) %MON dynstat_salt_mean            =   3.4498092260111E+01
(PID.TID 0000.0001) %MON dynstat_salt_sd              =   2.7015480686542E-01
(PID.TID 0000.0001) %MON dynstat_salt_del2            =   3.6558384102285E-07
(PID.TID 0000.0001) %MON advcfl_uvel_max              =   3.6051759541669E-04
(PID.TID 0000.0001) %MON advcfl_vvel_max              =   3.3030976488533E-04
(PID.TID 0000.0001) %MON advcfl_wvel_max              =   9.6508591132842E-04
(PID.TID 0000.0001) %MON advcfl_W_hf_max              =   9.6508591132842E-04
(PID.TID 0000.0001) %MON pe_b_mean                    =  -6.8286090071248E-01
(PID.TID 0000.0001) %MON ke_max                       =   5.3864357948926E-06
(PID.TID 0000.0001) %MON ke_mean                      =   9.5375900804863E-09
(PID.TID 0000.0001) %MON ke_vol                       =   4.6182883354529E+12
(PID.TID 0000.0001) // =======================================================
(PID.TID 0000.0001) // End MONITOR dynamic field statistics
(PID.TID 0000.0001) // =======================================================
(PID.TID 0000.0001) // =======================================================
(PID.TID 0000.0001) // Begin OBCS MONITOR field statistics
(PID.TID 0000.0001) // =======================================================
(PID.TID 0000.0001) %MON obc_N_vVel_max               =  -8.7705656042183E-08
(PID.TID 0000.0001) %MON obc_N_vVel_min               =  -8.7705656042185E-08
(PID.TID 0000.0001) %MON obc_N_vVel_mean              =  -8.7705656042185E-08
(PID.TID 0000.0001) %MON obc_N_vVel_sd                =  -3.9127500898962E-28
(PID.TID 0000.0001) %MON obc_N_vVel_Int               =  -5.7885732987842E+00
(PID.TID 0000.0001) // =======================================================
(PID.TID 0000.0001) // End OBCS MONITOR field statistics
(PID.TID 0000.0001) // =======================================================
 cg2d: Sum(rhs),rhsMax =   3.01222365345085E+00  4.53052252096361E+02
(PID.TID 0000.0001)      cg2d_init_res =   2.01566433676499E-06
(PID.TID 0000.0001)      cg2d_iters(min,last) =      -1      65
(PID.TID 0000.0001)      cg2d_last_res =   9.93462211290828E-12
(PID.TID 0000.0001) // =======================================================
(PID.TID 0000.0001) // Begin MONITOR dynamic field statistics
(PID.TID 0000.0001) // =======================================================
(PID.TID 0000.0001) %MON time_tsnumber                =                   286
(PID.TID 0000.0001) %MON time_secondsf                =   2.8600000000000E+04
(PID.TID 0000.0001) %MON dynstat_eta_max              =   5.7962799512696E+00
(PID.TID 0000.0001) %MON dynstat_eta_min              =  -1.4177273879158E+01
(PID.TID 0000.0001) %MON dynstat_eta_mean             =  -2.5272124259515E+00
(PID.TID 0000.0001) %MON dynstat_eta_sd               =   4.9420217132810E+00
(PID.TID 0000.0001) %MON dynstat_eta_del2             =   1.9058059073727E-01
(PID.TID 0000.0001) %MON dynstat_uvel_max             =   1.7843386892569E-03
(PID.TID 0000.0001) %MON dynstat_uvel_min             =  -3.6032623434916E-03
(PID.TID 0000.0001) %MON dynstat_uvel_mean            =  -4.6191400608313E-10
(PID.TID 0000.0001) %MON dynstat_uvel_sd              =   9.4713769488582E-05
(PID.TID 0000.0001) %MON dynstat_uvel_del2            =   3.2359151364695E-07
(PID.TID 0000.0001) %MON dynstat_vvel_max             =   3.3012830665333E-03
(PID.TID 0000.0001) %MON dynstat_vvel_min             =  -1.6792542299235E-03
(PID.TID 0000.0001) %MON dynstat_vvel_mean            =  -8.1641668642203E-08
(PID.TID 0000.0001) %MON dynstat_vvel_sd              =   1.0170312709352E-04
(PID.TID 0000.0001) %MON dynstat_vvel_del2            =   3.6654373075840E-07
(PID.TID 0000.0001) %MON dynstat_wvel_max             =   1.9247533435069E-04
(PID.TID 0000.0001) %MON dynstat_wvel_min             =  -8.8010198163847E-05
(PID.TID 0000.0001) %MON dynstat_wvel_mean            =   1.2539989767530E-10
(PID.TID 0000.0001) %MON dynstat_wvel_sd              =   1.9123232566480E-05
(PID.TID 0000.0001) %MON dynstat_wvel_del2            =   9.5763812885128E-08
(PID.TID 0000.0001) %MON dynstat_theta_max            =   1.2000000000000E+00
(PID.TID 0000.0001) %MON dynstat_theta_min            =  -1.0000000000000E+00
(PID.TID 0000.0001) %MON dynstat_theta_mean           =   5.6544691909276E-01
(PID.TID 0000.0001) %MON dynstat_theta_sd             =   8.4905630004065E-01
(PID.TID 0000.0001) %MON dynstat_theta_del2           =   1.1329294382885E-06
(PID.TID 0000.0001) %MON dynstat_salt_max             =   3.4700000000000E+01
(PID.TID 0000.0001) %MON dynstat_salt_min             =   3.4000000000000E+01
(PID.TID 0000.0001) %MON dynstat_salt_mean            =   3.4498092179542E+01
(PID.TID 0000.0001) %MON dynstat_salt_sd              =   2.7015479472561E-01
(PID.TID 0000.0001) %MON dynstat_salt_del2            =   3.6466206751472E-07
(PID.TID 0000.0001) %MON advcfl_uvel_max              =   3.6032623434916E-04
(PID.TID 0000.0001) %MON advcfl_vvel_max              =   3.3012830665333E-04
(PID.TID 0000.0001) %MON advcfl_wvel_max              =   9.6237667175343E-04
(PID.TID 0000.0001) %MON advcfl_W_hf_max              =   9.6237667175343E-04
(PID.TID 0000.0001) %MON pe_b_mean                    =  -6.8286040198575E-01
(PID.TID 0000.0001) %MON ke_max                       =   5.3734915863440E-06
(PID.TID 0000.0001) %MON ke_mean                      =   9.5726287634572E-09
(PID.TID 0000.0001) %MON ke_vol                       =   4.6182883468140E+12
(PID.TID 0000.0001) // =======================================================
(PID.TID 0000.0001) // End MONITOR dynamic field statistics
(PID.TID 0000.0001) // =======================================================
(PID.TID 0000.0001) // =======================================================
(PID.TID 0000.0001) // Begin OBCS MONITOR field statistics
(PID.TID 0000.0001) // =======================================================
(PID.TID 0000.0001) %MON obc_N_vVel_max               =  -8.9683688070443E-08
(PID.TID 0000.0001) %MON obc_N_vVel_min               =  -8.9683688070445E-08
(PID.TID 0000.0001) %MON obc_N_vVel_mean              =  -8.9683688070445E-08
(PID.TID 0000.0001) %MON obc_N_vVel_sd                =  -5.6797985175913E-28
(PID.TID 0000.0001) %MON obc_N_vVel_Int               =  -5.9191234126494E+00
(PID.TID 0000.0001) // =======================================================
(PID.TID 0000.0001) // End OBCS MONITOR field statistics
(PID.TID 0000.0001) // =======================================================
 cg2d: Sum(rhs),rhsMax =   3.01222145101149E+00  4.53052239599113E+02
(PID.TID 0000.0001)      cg2d_init_res =   2.00728905019491E-06
(PID.TID 0000.0001)      cg2d_iters(min,last) =      -1      65
(PID.TID 0000.0001)      cg2d_last_res =   9.89215735060739E-12
(PID.TID 0000.0001) // =======================================================
(PID.TID 0000.0001) // Begin MONITOR dynamic field statistics
(PID.TID 0000.0001) // =======================================================
(PID.TID 0000.0001) %MON time_tsnumber                =                   287
(PID.TID 0000.0001) %MON time_secondsf                =   2.8700000000000E+04
(PID.TID 0000.0001) %MON dynstat_eta_max              =   5.7962826870909E+00
(PID.TID 0000.0001) %MON dynstat_eta_min              =  -1.4177268397905E+01
(PID.TID 0000.0001) %MON dynstat_eta_mean             =  -2.5272105084245E+00
(PID.TID 0000.0001) %MON dynstat_eta_sd               =   4.9420210829215E+00
(PID.TID 0000.0001) %MON dynstat_eta_del2             =   1.9058059085947E-01
(PID.TID 0000.0001) %MON dynstat_uvel_max             =   1.7719097241784E-03
(PID.TID 0000.0001) %MON dynstat_uvel_min             =  -3.6012743590776E-03
(PID.TID 0000.0001) %MON dynstat_uvel_mean            =  -4.6878341824966E-10
(PID.TID 0000.0001) %MON dynstat_uvel_sd              =   9.5012482010734E-05
(PID.TID 0000.0001) %MON dynstat_uvel_del2            =   3.2289739705856E-07
(PID.TID 0000.0001) %MON dynstat_vvel_max             =   3.2994087406770E-03
(PID.TID 0000.0001) %MON dynstat_vvel_min             =  -1.6803907252871E-03
(PID.TID 0000.0001) %MON dynstat_vvel_mean            =  -8.3415613007525E-08
(PID.TID 0000.0001) %MON dynstat_vvel_sd              =   1.0177623389900E-04
(PID.TID 0000.0001) %MON dynstat_vvel_del2            =   3.6560541778981E-07
(PID.TID 0000.0001) %MON dynstat_wvel_max             =   1.9192994874773E-04
(PID.TID 0000.0001) %MON dynstat_wvel_min             =  -8.9812229218379E-05
(PID.TID 0000.0001) %MON dynstat_wvel_mean            =   1.2713239235911E-10
(PID.TID 0000.0001) %MON dynstat_wvel_sd              =   1.9067390682854E-05
(PID.TID 0000.0001) %MON dynstat_wvel_del2            =   9.5292930031776E-08
(PID.TID 0000.0001) %MON dynstat_theta_max            =   1.2000000000000E+00
(PID.TID 0000.0001) %MON dynstat_theta_min            =  -1.0000000000000E+00
(PID.TID 0000.0001) %MON dynstat_theta_mean           =   5.6544671589356E-01
(PID.TID 0000.0001) %MON dynstat_theta_sd             =   8.4905625707153E-01
(PID.TID 0000.0001) %MON dynstat_theta_del2           =   1.1295193602167E-06
(PID.TID 0000.0001) %MON dynstat_salt_max             =   3.4700000000000E+01
(PID.TID 0000.0001) %MON dynstat_salt_min             =   3.4000000000000E+01
(PID.TID 0000.0001) %MON dynstat_salt_mean            =   3.4498092098959E+01
(PID.TID 0000.0001) %MON dynstat_salt_sd              =   2.7015478259825E-01
(PID.TID 0000.0001) %MON dynstat_salt_del2            =   3.6375029419557E-07
(PID.TID 0000.0001) %MON advcfl_uvel_max              =   3.6012743590776E-04
(PID.TID 0000.0001) %MON advcfl_vvel_max              =   3.2994087406770E-04
(PID.TID 0000.0001) %MON advcfl_wvel_max              =   9.5964974373866E-04
(PID.TID 0000.0001) %MON advcfl_W_hf_max              =   9.5964974373866E-04
(PID.TID 0000.0001) %MON pe_b_mean                    =  -6.8285990279304E-01
(PID.TID 0000.0001) %MON ke_max                       =   5.3604622017697E-06
(PID.TID 0000.0001) %MON ke_mean                      =   9.6078706608489E-09
(PID.TID 0000.0001) %MON ke_vol                       =   4.6182883581898E+12
(PID.TID 0000.0001) // =======================================================
(PID.TID 0000.0001) // End MONITOR dynamic field statistics
(PID.TID 0000.0001) // =======================================================
(PID.TID 0000.0001) // =======================================================
(PID.TID 0000.0001) // Begin OBCS MONITOR field statistics
(PID.TID 0000.0001) // =======================================================
(PID.TID 0000.0001) %MON obc_N_vVel_max               =  -9.1568396010018E-08
(PID.TID 0000.0001) %MON obc_N_vVel_min               =  -9.1568396010020E-08
(PID.TID 0000.0001) %MON obc_N_vVel_mean              =  -9.1568396010018E-08
(PID.TID 0000.0001) %MON obc_N_vVel_sd                =   1.9899954131127E-14
(PID.TID 0000.0001) %MON obc_N_vVel_Int               =  -6.0435141366612E+00
(PID.TID 0000.0001) // =======================================================
(PID.TID 0000.0001) // End OBCS MONITOR field statistics
(PID.TID 0000.0001) // =======================================================
 cg2d: Sum(rhs),rhsMax =   3.01221924540067E+00  4.53052227162341E+02
(PID.TID 0000.0001)      cg2d_init_res =   1.99841802421826E-06
(PID.TID 0000.0001)      cg2d_iters(min,last) =      -1      65
(PID.TID 0000.0001)      cg2d_last_res =   9.86787037249718E-12
(PID.TID 0000.0001) // =======================================================
(PID.TID 0000.0001) // Begin MONITOR dynamic field statistics
(PID.TID 0000.0001) // =======================================================
(PID.TID 0000.0001) %MON time_tsnumber                =                   288
(PID.TID 0000.0001) %MON time_secondsf                =   2.8800000000000E+04
(PID.TID 0000.0001) %MON dynstat_eta_max              =   5.7962854288176E+00
(PID.TID 0000.0001) %MON dynstat_eta_min              =  -1.4177262917175E+01
(PID.TID 0000.0001) %MON dynstat_eta_mean             =  -2.5272085885742E+00
(PID.TID 0000.0001) %MON dynstat_eta_sd               =   4.9420204520083E+00
(PID.TID 0000.0001) %MON dynstat_eta_del2             =   1.9058059098894E-01
(PID.TID 0000.0001) %MON dynstat_uvel_max             =   1.7594148768634E-03
(PID.TID 0000.0001) %MON dynstat_uvel_min             =  -3.5992125742919E-03
(PID.TID 0000.0001) %MON dynstat_uvel_mean            =  -4.7526852077934E-10
(PID.TID 0000.0001) %MON dynstat_uvel_sd              =   9.5312923109097E-05
(PID.TID 0000.0001) %MON dynstat_uvel_del2            =   3.2220846003602E-07
(PID.TID 0000.0001) %MON dynstat_vvel_max             =   3.2974751490311E-03
(PID.TID 0000.0001) %MON dynstat_vvel_min             =  -1.6814525281710E-03
(PID.TID 0000.0001) %MON dynstat_vvel_mean            =  -8.5134291444553E-08
(PID.TID 0000.0001) %MON dynstat_vvel_sd              =   1.0184960752093E-04
(PID.TID 0000.0001) %MON dynstat_vvel_del2            =   3.6468072498730E-07
(PID.TID 0000.0001) %MON dynstat_wvel_max             =   1.9138106843279E-04
(PID.TID 0000.0001) %MON dynstat_wvel_min             =  -9.3752914504537E-05
(PID.TID 0000.0001) %MON dynstat_wvel_mean            =   1.2866795868890E-10
(PID.TID 0000.0001) %MON dynstat_wvel_sd              =   1.9011984247361E-05
(PID.TID 0000.0001) %MON dynstat_wvel_del2            =   9.4830948229410E-08
(PID.TID 0000.0001) %MON dynstat_theta_max            =   1.2000000000000E+00
(PID.TID 0000.0001) %MON dynstat_theta_min            =  -1.0000000000000E+00
(PID.TID 0000.0001) %MON dynstat_theta_mean           =   5.6544651265675E-01
(PID.TID 0000.0001) %MON dynstat_theta_sd             =   8.4905621414745E-01
(PID.TID 0000.0001) %MON dynstat_theta_del2           =   1.1261256551320E-06
(PID.TID 0000.0001) %MON dynstat_salt_max             =   3.4700000000000E+01
(PID.TID 0000.0001) %MON dynstat_salt_min             =   3.4000000000000E+01
(PID.TID 0000.0001) %MON dynstat_salt_mean            =   3.4498092018361E+01
(PID.TID 0000.0001) %MON dynstat_salt_sd              =   2.7015477048237E-01
(PID.TID 0000.0001) %MON dynstat_salt_del2            =   3.6284415733849E-07
(PID.TID 0000.0001) %MON advcfl_uvel_max              =   3.5992125742919E-04
(PID.TID 0000.0001) %MON advcfl_vvel_max              =   3.2974751490311E-04
(PID.TID 0000.0001) %MON advcfl_wvel_max              =   9.5690534216395E-04
(PID.TID 0000.0001) %MON advcfl_W_hf_max              =   9.5690534216395E-04
(PID.TID 0000.0001) %MON pe_b_mean                    =  -6.8285940314050E-01
(PID.TID 0000.0001) %MON ke_max                       =   5.3473509926893E-06
(PID.TID 0000.0001) %MON ke_mean                      =   9.6433942842653E-09
(PID.TID 0000.0001) %MON ke_vol                       =   4.6182883695800E+12
(PID.TID 0000.0001) // =======================================================
(PID.TID 0000.0001) // End MONITOR dynamic field statistics
(PID.TID 0000.0001) // =======================================================
(PID.TID 0000.0001) // =======================================================
(PID.TID 0000.0001) // Begin OBCS MONITOR field statistics
(PID.TID 0000.0001) // =======================================================
(PID.TID 0000.0001) %MON obc_N_vVel_max               =  -9.3362264382931E-08
(PID.TID 0000.0001) %MON obc_N_vVel_min               =  -9.3362264382933E-08
(PID.TID 0000.0001) %MON obc_N_vVel_mean              =  -9.3362264382931E-08
(PID.TID 0000.0001) %MON obc_N_vVel_sd                =   2.5985860287264E-14
(PID.TID 0000.0001) %MON obc_N_vVel_Int               =  -6.1619094492734E+00
(PID.TID 0000.0001) // =======================================================
(PID.TID 0000.0001) // End OBCS MONITOR field statistics
(PID.TID 0000.0001) // =======================================================
 cg2d: Sum(rhs),rhsMax =   3.01221703644914E+00  4.53052214828224E+02
(PID.TID 0000.0001)      cg2d_init_res =   1.98961826856477E-06
(PID.TID 0000.0001)      cg2d_iters(min,last) =      -1      65
(PID.TID 0000.0001)      cg2d_last_res =   9.85649744896120E-12
(PID.TID 0000.0001) // =======================================================
(PID.TID 0000.0001) // Begin MONITOR dynamic field statistics
(PID.TID 0000.0001) // =======================================================
(PID.TID 0000.0001) %MON time_tsnumber                =                   289
(PID.TID 0000.0001) %MON time_secondsf                =   2.8900000000000E+04
(PID.TID 0000.0001) %MON dynstat_eta_max              =   5.7962881757633E+00
(PID.TID 0000.0001) %MON dynstat_eta_min              =  -1.4177257436861E+01
(PID.TID 0000.0001) %MON dynstat_eta_mean             =  -2.5272066664937E+00
(PID.TID 0000.0001) %MON dynstat_eta_sd               =   4.9420198206091E+00
(PID.TID 0000.0001) %MON dynstat_eta_del2             =   1.9058059112790E-01
(PID.TID 0000.0001) %MON dynstat_uvel_max             =   1.7468550758473E-03
(PID.TID 0000.0001) %MON dynstat_uvel_min             =  -3.5970775602052E-03
(PID.TID 0000.0001) %MON dynstat_uvel_mean            =  -4.8217315084052E-10
(PID.TID 0000.0001) %MON dynstat_uvel_sd              =   9.5615078213353E-05
(PID.TID 0000.0001) %MON dynstat_uvel_del2            =   3.2152477395624E-07
(PID.TID 0000.0001) %MON dynstat_vvel_max             =   3.2954827716747E-03
(PID.TID 0000.0001) %MON dynstat_vvel_min             =  -1.6824362572230E-03
(PID.TID 0000.0001) %MON dynstat_vvel_mean            =  -8.6776841311847E-08
(PID.TID 0000.0001) %MON dynstat_vvel_sd              =   1.0192397824769E-04
(PID.TID 0000.0001) %MON dynstat_vvel_del2            =   3.6378413307641E-07
(PID.TID 0000.0001) %MON dynstat_wvel_max             =   1.9082874703189E-04
(PID.TID 0000.0001) %MON dynstat_wvel_min             =  -9.7308262381857E-05
(PID.TID 0000.0001) %MON dynstat_wvel_mean            =   1.3006853657753E-10
(PID.TID 0000.0001) %MON dynstat_wvel_sd              =   1.8958896493998E-05
(PID.TID 0000.0001) %MON dynstat_wvel_del2            =   9.4403344073429E-08
(PID.TID 0000.0001) %MON dynstat_theta_max            =   1.2000000000000E+00
(PID.TID 0000.0001) %MON dynstat_theta_min            =  -1.0000000000000E+00
(PID.TID 0000.0001) %MON dynstat_theta_mean           =   5.6544630937979E-01
(PID.TID 0000.0001) %MON dynstat_theta_sd             =   8.4905617119231E-01
(PID.TID 0000.0001) %MON dynstat_theta_del2           =   1.1227357578699E-06
(PID.TID 0000.0001) %MON dynstat_salt_max             =   3.4700000000000E+01
(PID.TID 0000.0001) %MON dynstat_salt_min             =   3.4000000000000E+01
(PID.TID 0000.0001) %MON dynstat_salt_mean            =   3.4498091937748E+01
(PID.TID 0000.0001) %MON dynstat_salt_sd              =   2.7015475835356E-01
(PID.TID 0000.0001) %MON dynstat_salt_del2            =   3.6193965353687E-07
(PID.TID 0000.0001) %MON advcfl_uvel_max              =   3.5970775602052E-04
(PID.TID 0000.0001) %MON advcfl_vvel_max              =   3.2954827716747E-04
(PID.TID 0000.0001) %MON advcfl_wvel_max              =   9.5414373515945E-04
(PID.TID 0000.0001) %MON advcfl_W_hf_max              =   9.5414373515945E-04
(PID.TID 0000.0001) %MON pe_b_mean                    =  -6.8285890304085E-01
(PID.TID 0000.0001) %MON ke_max                       =   5.3341612798100E-06
(PID.TID 0000.0001) %MON ke_mean                      =   9.6792742831146E-09
(PID.TID 0000.0001) %MON ke_vol                       =   4.6182883809839E+12
(PID.TID 0000.0001) // =======================================================
(PID.TID 0000.0001) // End MONITOR dynamic field statistics
(PID.TID 0000.0001) // =======================================================
(PID.TID 0000.0001) // =======================================================
(PID.TID 0000.0001) // Begin OBCS MONITOR field statistics
(PID.TID 0000.0001) // =======================================================
(PID.TID 0000.0001) %MON obc_N_vVel_max               =  -9.5050932753567E-08
(PID.TID 0000.0001) %MON obc_N_vVel_min               =  -9.5050932753570E-08
(PID.TID 0000.0001) %MON obc_N_vVel_mean              =  -9.5050932753570E-08
(PID.TID 0000.0001) %MON obc_N_vVel_sd                =  -1.3410635388757E-28
(PID.TID 0000.0001) %MON obc_N_vVel_Int               =  -6.2733615617356E+00
(PID.TID 0000.0001) // =======================================================
(PID.TID 0000.0001) // End OBCS MONITOR field statistics
(PID.TID 0000.0001) // =======================================================
 cg2d: Sum(rhs),rhsMax =   3.01221482403023E+00  4.53052202638730E+02
(PID.TID 0000.0001)      cg2d_init_res =   1.98143100247518E-06
(PID.TID 0000.0001)      cg2d_iters(min,last) =      -1      65
(PID.TID 0000.0001)      cg2d_last_res =   9.87245674859503E-12
(PID.TID 0000.0001) // =======================================================
(PID.TID 0000.0001) // Begin MONITOR dynamic field statistics
(PID.TID 0000.0001) // =======================================================
(PID.TID 0000.0001) %MON time_tsnumber                =                   290
(PID.TID 0000.0001) %MON time_secondsf                =   2.9000000000000E+04
(PID.TID 0000.0001) %MON dynstat_eta_max              =   5.7962909271992E+00
(PID.TID 0000.0001) %MON dynstat_eta_min              =  -1.4177251956955E+01
(PID.TID 0000.0001) %MON dynstat_eta_mean             =  -2.5272047423110E+00
(PID.TID 0000.0001) %MON dynstat_eta_sd               =   4.9420191888135E+00
(PID.TID 0000.0001) %MON dynstat_eta_del2             =   1.9058059127805E-01
(PID.TID 0000.0001) %MON dynstat_uvel_max             =   1.7342312471005E-03
(PID.TID 0000.0001) %MON dynstat_uvel_min             =  -3.5948698887596E-03
(PID.TID 0000.0001) %MON dynstat_uvel_mean            =  -4.9024155971059E-10
(PID.TID 0000.0001) %MON dynstat_uvel_sd              =   9.5918933034191E-05
(PID.TID 0000.0001) %MON dynstat_uvel_del2            =   3.2084641085395E-07
(PID.TID 0000.0001) %MON dynstat_vvel_max             =   3.2934320952895E-03
(PID.TID 0000.0001) %MON dynstat_vvel_min             =  -1.6833386009782E-03
(PID.TID 0000.0001) %MON dynstat_vvel_mean            =  -8.8310214219768E-08
(PID.TID 0000.0001) %MON dynstat_vvel_sd              =   1.0199993730997E-04
(PID.TID 0000.0001) %MON dynstat_vvel_del2            =   3.6292710313678E-07
(PID.TID 0000.0001) %MON dynstat_wvel_max             =   1.9027303873491E-04
(PID.TID 0000.0001) %MON dynstat_wvel_min             =  -9.9922477438686E-05
(PID.TID 0000.0001) %MON dynstat_wvel_mean            =   1.3141237461098E-10
(PID.TID 0000.0001) %MON dynstat_wvel_sd              =   1.8909680827021E-05
(PID.TID 0000.0001) %MON dynstat_wvel_del2            =   9.4030713005659E-08
(PID.TID 0000.0001) %MON dynstat_theta_max            =   1.2000000000000E+00
(PID.TID 0000.0001) %MON dynstat_theta_min            =  -1.0000000000000E+00
(PID.TID 0000.0001) %MON dynstat_theta_mean           =   5.6544610606113E-01
(PID.TID 0000.0001) %MON dynstat_theta_sd             =   8.4905612822561E-01
(PID.TID 0000.0001) %MON dynstat_theta_del2           =   1.1193403355140E-06
(PID.TID 0000.0001) %MON dynstat_salt_max             =   3.4700000000000E+01
(PID.TID 0000.0001) %MON dynstat_salt_min             =   3.4000000000000E+01
(PID.TID 0000.0001) %MON dynstat_salt_mean            =   3.4498091857117E+01
(PID.TID 0000.0001) %MON dynstat_salt_sd              =   2.7015474621809E-01
(PID.TID 0000.0001) %MON dynstat_salt_del2            =   3.6103381185546E-07
(PID.TID 0000.0001) %MON advcfl_uvel_max              =   3.5948698887596E-04
(PID.TID 0000.0001) %MON advcfl_vvel_max              =   3.2934320952895E-04
(PID.TID 0000.0001) %MON advcfl_wvel_max              =   9.5136519367456E-04
(PID.TID 0000.0001) %MON advcfl_W_hf_max              =   9.5136519367456E-04
(PID.TID 0000.0001) %MON pe_b_mean                    =  -6.8285840251776E-01
(PID.TID 0000.0001) %MON ke_max                       =   5.3208963683349E-06
(PID.TID 0000.0001) %MON ke_mean                      =   9.7155713597987E-09
(PID.TID 0000.0001) %MON ke_vol                       =   4.6182883924010E+12
(PID.TID 0000.0001) // =======================================================
(PID.TID 0000.0001) // End MONITOR dynamic field statistics
(PID.TID 0000.0001) // =======================================================
(PID.TID 0000.0001) // =======================================================
(PID.TID 0000.0001) // Begin OBCS MONITOR field statistics
(PID.TID 0000.0001) // =======================================================
(PID.TID 0000.0001) %MON obc_N_vVel_max               =  -9.6611230156569E-08
(PID.TID 0000.0001) %MON obc_N_vVel_min               =  -9.6611230156573E-08
(PID.TID 0000.0001) %MON obc_N_vVel_mean              =  -9.6611230156569E-08
(PID.TID 0000.0001) %MON obc_N_vVel_sd                =   2.8002280974765E-14
(PID.TID 0000.0001) %MON obc_N_vVel_Int               =  -6.3763411903336E+00
(PID.TID 0000.0001) // =======================================================
(PID.TID 0000.0001) // End OBCS MONITOR field statistics
(PID.TID 0000.0001) // =======================================================
 cg2d: Sum(rhs),rhsMax =   3.01221260806598E+00  4.53052190634589E+02
(PID.TID 0000.0001)      cg2d_init_res =   1.97430909313502E-06
(PID.TID 0000.0001)      cg2d_iters(min,last) =      -1      65
(PID.TID 0000.0001)      cg2d_last_res =   9.90578499742207E-12
(PID.TID 0000.0001) // =======================================================
(PID.TID 0000.0001) // Begin MONITOR dynamic field statistics
(PID.TID 0000.0001) // =======================================================
(PID.TID 0000.0001) %MON time_tsnumber                =                   291
(PID.TID 0000.0001) %MON time_secondsf                =   2.9100000000000E+04
(PID.TID 0000.0001) %MON dynstat_eta_max              =   5.7962936823173E+00
(PID.TID 0000.0001) %MON dynstat_eta_min              =  -1.4177246477607E+01
(PID.TID 0000.0001) %MON dynstat_eta_mean             =  -2.5272028161878E+00
(PID.TID 0000.0001) %MON dynstat_eta_sd               =   4.9420185567287E+00
(PID.TID 0000.0001) %MON dynstat_eta_del2             =   1.9058059144118E-01
(PID.TID 0000.0001) %MON dynstat_uvel_max             =   1.7215443140195E-03
(PID.TID 0000.0001) %MON dynstat_uvel_min             =  -3.5925901308453E-03
(PID.TID 0000.0001) %MON dynstat_uvel_mean            =  -5.0012282160680E-10
(PID.TID 0000.0001) %MON dynstat_uvel_sd              =   9.6224473487065E-05
(PID.TID 0000.0001) %MON dynstat_uvel_del2            =   3.2017344321823E-07
(PID.TID 0000.0001) %MON dynstat_vvel_max             =   3.2913236114807E-03
(PID.TID 0000.0001) %MON dynstat_vvel_min             =  -1.6841563231758E-03
(PID.TID 0000.0001) %MON dynstat_vvel_mean            =  -8.9690904333933E-08
(PID.TID 0000.0001) %MON dynstat_vvel_sd              =   1.0207785817794E-04
(PID.TID 0000.0001) %MON dynstat_vvel_del2            =   3.6211658109814E-07
(PID.TID 0000.0001) %MON dynstat_wvel_max             =   1.8971399695417E-04
(PID.TID 0000.0001) %MON dynstat_wvel_min             =  -1.0042891560437E-04
(PID.TID 0000.0001) %MON dynstat_wvel_mean            =   1.3277957697928E-10
(PID.TID 0000.0001) %MON dynstat_wvel_sd              =   1.8865357982598E-05
(PID.TID 0000.0001) %MON dynstat_wvel_del2            =   9.3726018491822E-08
(PID.TID 0000.0001) %MON dynstat_theta_max            =   1.2000000000000E+00
(PID.TID 0000.0001) %MON dynstat_theta_min            =  -1.0000000000000E+00
(PID.TID 0000.0001) %MON dynstat_theta_mean           =   5.6544590269900E-01
(PID.TID 0000.0001) %MON dynstat_theta_sd             =   8.4905608528280E-01
(PID.TID 0000.0001) %MON dynstat_theta_del2           =   1.1159348082948E-06
(PID.TID 0000.0001) %MON dynstat_salt_max             =   3.4700000000000E+01
(PID.TID 0000.0001) %MON dynstat_salt_min             =   3.4000000000000E+01
(PID.TID 0000.0001) %MON dynstat_salt_mean            =   3.4498091776470E+01
(PID.TID 0000.0001) %MON dynstat_salt_sd              =   2.7015473408708E-01
(PID.TID 0000.0001) %MON dynstat_salt_del2            =   3.6012515814320E-07
(PID.TID 0000.0001) %MON advcfl_uvel_max              =   3.5925901308453E-04
(PID.TID 0000.0001) %MON advcfl_vvel_max              =   3.2913236114807E-04
(PID.TID 0000.0001) %MON advcfl_wvel_max              =   9.4856998477084E-04
(PID.TID 0000.0001) %MON advcfl_W_hf_max              =   9.4856998477084E-04
(PID.TID 0000.0001) %MON pe_b_mean                    =  -6.8285790160383E-01
(PID.TID 0000.0001) %MON ke_max                       =   5.3075595441842E-06
(PID.TID 0000.0001) %MON ke_mean                      =   9.7523241840278E-09
(PID.TID 0000.0001) %MON ke_vol                       =   4.6182884038307E+12
(PID.TID 0000.0001) // =======================================================
(PID.TID 0000.0001) // End MONITOR dynamic field statistics
(PID.TID 0000.0001) // =======================================================
(PID.TID 0000.0001) // =======================================================
(PID.TID 0000.0001) // Begin OBCS MONITOR field statistics
(PID.TID 0000.0001) // =======================================================
(PID.TID 0000.0001) %MON obc_N_vVel_max               =  -9.8010788099502E-08
(PID.TID 0000.0001) %MON obc_N_vVel_min               =  -9.8010788099504E-08
(PID.TID 0000.0001) %MON obc_N_vVel_mean              =  -9.8010788099502E-08
(PID.TID 0000.0001) %MON obc_N_vVel_sd                =   2.4995556343779E-14
(PID.TID 0000.0001) %MON obc_N_vVel_Int               =  -6.4687120145671E+00
(PID.TID 0000.0001) // =======================================================
(PID.TID 0000.0001) // End OBCS MONITOR field statistics
(PID.TID 0000.0001) // =======================================================
 cg2d: Sum(rhs),rhsMax =   3.01221038854497E+00  4.53052178854228E+02
(PID.TID 0000.0001)      cg2d_init_res =   1.96853106289933E-06
(PID.TID 0000.0001)      cg2d_iters(min,last) =      -1      65
(PID.TID 0000.0001)      cg2d_last_res =   9.96323234987862E-12
(PID.TID 0000.0001) // =======================================================
(PID.TID 0000.0001) // Begin MONITOR dynamic field statistics
(PID.TID 0000.0001) // =======================================================
(PID.TID 0000.0001) %MON time_tsnumber                =                   292
(PID.TID 0000.0001) %MON time_secondsf                =   2.9200000000000E+04
(PID.TID 0000.0001) %MON dynstat_eta_max              =   5.7962964402222E+00
(PID.TID 0000.0001) %MON dynstat_eta_min              =  -1.4177240999117E+01
(PID.TID 0000.0001) %MON dynstat_eta_mean             =  -2.5272008883290E+00
(PID.TID 0000.0001) %MON dynstat_eta_sd               =   4.9420179244805E+00
(PID.TID 0000.0001) %MON dynstat_eta_del2             =   1.9058059161892E-01
(PID.TID 0000.0001) %MON dynstat_uvel_max             =   1.7087951974926E-03
(PID.TID 0000.0001) %MON dynstat_uvel_min             =  -3.5902388568991E-03
(PID.TID 0000.0001) %MON dynstat_uvel_mean            =  -5.1237165932568E-10
(PID.TID 0000.0001) %MON dynstat_uvel_sd              =   9.6531685574312E-05
(PID.TID 0000.0001) %MON dynstat_uvel_del2            =   3.1950594352249E-07
(PID.TID 0000.0001) %MON dynstat_vvel_max             =   3.2891578146090E-03
(PID.TID 0000.0001) %MON dynstat_vvel_min             =  -1.6848862688228E-03
(PID.TID 0000.0001) %MON dynstat_vvel_mean            =  -9.0867271070861E-08
(PID.TID 0000.0001) %MON dynstat_vvel_sd              =   1.0215784841550E-04
(PID.TID 0000.0001) %MON dynstat_vvel_del2            =   3.6135412280000E-07
(PID.TID 0000.0001) %MON dynstat_wvel_max             =   1.8915167455377E-04
(PID.TID 0000.0001) %MON dynstat_wvel_min             =  -9.8835499762364E-05
(PID.TID 0000.0001) %MON dynstat_wvel_mean            =   1.3423662856640E-10
(PID.TID 0000.0001) %MON dynstat_wvel_sd              =   1.8826288202223E-05
(PID.TID 0000.0001) %MON dynstat_wvel_del2            =   9.3492917894976E-08
(PID.TID 0000.0001) %MON dynstat_theta_max            =   1.2000000000000E+00
(PID.TID 0000.0001) %MON dynstat_theta_min            =  -1.0000000000000E+00
(PID.TID 0000.0001) %MON dynstat_theta_mean           =   5.6544569929140E-01
(PID.TID 0000.0001) %MON dynstat_theta_sd             =   8.4905604237960E-01
(PID.TID 0000.0001) %MON dynstat_theta_del2           =   1.1125196587814E-06
(PID.TID 0000.0001) %MON dynstat_salt_max             =   3.4700000000000E+01
(PID.TID 0000.0001) %MON dynstat_salt_min             =   3.4000000000000E+01
(PID.TID 0000.0001) %MON dynstat_salt_mean            =   3.4498091695804E+01
(PID.TID 0000.0001) %MON dynstat_salt_sd              =   2.7015472196547E-01
(PID.TID 0000.0001) %MON dynstat_salt_del2            =   3.5921377722340E-07
(PID.TID 0000.0001) %MON advcfl_uvel_max              =   3.5902388568991E-04
(PID.TID 0000.0001) %MON advcfl_vvel_max              =   3.2891578146090E-04
(PID.TID 0000.0001) %MON advcfl_wvel_max              =   9.4575837276887E-04
(PID.TID 0000.0001) %MON advcfl_W_hf_max              =   9.4575837276887E-04
(PID.TID 0000.0001) %MON pe_b_mean                    =  -6.8285740034213E-01
(PID.TID 0000.0001) %MON ke_max                       =   5.2941540705821E-06
(PID.TID 0000.0001) %MON ke_mean                      =   9.7895443875260E-09
(PID.TID 0000.0001) %MON ke_vol                       =   4.6182884152718E+12
(PID.TID 0000.0001) // =======================================================
(PID.TID 0000.0001) // End MONITOR dynamic field statistics
(PID.TID 0000.0001) // =======================================================
(PID.TID 0000.0001) // =======================================================
(PID.TID 0000.0001) // Begin OBCS MONITOR field statistics
(PID.TID 0000.0001) // =======================================================
(PID.TID 0000.0001) %MON obc_N_vVel_max               =  -9.9208972178313E-08
(PID.TID 0000.0001) %MON obc_N_vVel_min               =  -9.9208972178315E-08
(PID.TID 0000.0001) %MON obc_N_vVel_mean              =  -9.9208972178315E-08
(PID.TID 0000.0001) %MON obc_N_vVel_sd                =  -8.5039205582825E-28
(PID.TID 0000.0001) %MON obc_N_vVel_Int               =  -6.5477921637688E+00
(PID.TID 0000.0001) // =======================================================
(PID.TID 0000.0001) // End OBCS MONITOR field statistics
(PID.TID 0000.0001) // =======================================================
 cg2d: Sum(rhs),rhsMax =   3.01220816552785E+00  4.53052167332764E+02
(PID.TID 0000.0001)      cg2d_init_res =   1.96417112977138E-06
(PID.TID 0000.0001)      cg2d_iters(min,last) =      -1      66
(PID.TID 0000.0001)      cg2d_last_res =   7.89859861138818E-12
(PID.TID 0000.0001) // =======================================================
(PID.TID 0000.0001) // Begin MONITOR dynamic field statistics
(PID.TID 0000.0001) // =======================================================
(PID.TID 0000.0001) %MON time_tsnumber                =                   293
(PID.TID 0000.0001) %MON time_secondsf                =   2.9300000000000E+04
(PID.TID 0000.0001) %MON dynstat_eta_max              =   5.7962991996122E+00
(PID.TID 0000.0001) %MON dynstat_eta_min              =  -1.4177235521695E+01
(PID.TID 0000.0001) %MON dynstat_eta_mean             =  -2.5271989589812E+00
(PID.TID 0000.0001) %MON dynstat_eta_sd               =   4.9420172922095E+00
(PID.TID 0000.0001) %MON dynstat_eta_del2             =   1.9058059181229E-01
(PID.TID 0000.0001) %MON dynstat_uvel_max             =   1.6959848116702E-03
(PID.TID 0000.0001) %MON dynstat_uvel_min             =  -3.5878166425543E-03
(PID.TID 0000.0001) %MON dynstat_uvel_mean            =  -5.2738921462511E-10
(PID.TID 0000.0001) %MON dynstat_uvel_sd              =   9.6840555285580E-05
(PID.TID 0000.0001) %MON dynstat_uvel_del2            =   3.1884398397767E-07
(PID.TID 0000.0001) %MON dynstat_vvel_max             =   3.2869352086546E-03
(PID.TID 0000.0001) %MON dynstat_vvel_min             =  -1.6855253779280E-03
(PID.TID 0000.0001) %MON dynstat_vvel_mean            =  -9.1782782787914E-08
(PID.TID 0000.0001) %MON dynstat_vvel_sd              =   1.0223973731661E-04
(PID.TID 0000.0001) %MON dynstat_vvel_del2            =   3.6063574020903E-07
(PID.TID 0000.0001) %MON dynstat_wvel_max             =   1.8858612565744E-04
(PID.TID 0000.0001) %MON dynstat_wvel_min             =  -9.5195219680523E-05
(PID.TID 0000.0001) %MON dynstat_wvel_mean            =   1.3585607605229E-10
(PID.TID 0000.0001) %MON dynstat_wvel_sd              =   1.8792134115138E-05
(PID.TID 0000.0001) %MON dynstat_wvel_del2            =   9.3325405970379E-08
(PID.TID 0000.0001) %MON dynstat_theta_max            =   1.2000000000000E+00
(PID.TID 0000.0001) %MON dynstat_theta_min            =  -1.0000000000000E+00
(PID.TID 0000.0001) %MON dynstat_theta_mean           =   5.6544549583536E-01
(PID.TID 0000.0001) %MON dynstat_theta_sd             =   8.4905599946236E-01
(PID.TID 0000.0001) %MON dynstat_theta_del2           =   1.1090998274024E-06
(PID.TID 0000.0001) %MON dynstat_salt_max             =   3.4700000000000E+01
(PID.TID 0000.0001) %MON dynstat_salt_min             =   3.4000000000000E+01
(PID.TID 0000.0001) %MON dynstat_salt_mean            =   3.4498091615118E+01
(PID.TID 0000.0001) %MON dynstat_salt_sd              =   2.7015470983616E-01
(PID.TID 0000.0001) %MON dynstat_salt_del2            =   3.5830122212193E-07
(PID.TID 0000.0001) %MON advcfl_uvel_max              =   3.5878166425543E-04
(PID.TID 0000.0001) %MON advcfl_vvel_max              =   3.2869352086546E-04
(PID.TID 0000.0001) %MON advcfl_wvel_max              =   9.4293062828719E-04
(PID.TID 0000.0001) %MON advcfl_W_hf_max              =   9.4293062828719E-04
(PID.TID 0000.0001) %MON pe_b_mean                    =  -6.8285689878534E-01
(PID.TID 0000.0001) %MON ke_max                       =   5.2806831891569E-06
(PID.TID 0000.0001) %MON ke_mean                      =   9.8272151890502E-09
(PID.TID 0000.0001) %MON ke_vol                       =   4.6182884267233E+12
(PID.TID 0000.0001) // =======================================================
(PID.TID 0000.0001) // End MONITOR dynamic field statistics
(PID.TID 0000.0001) // =======================================================
(PID.TID 0000.0001) // =======================================================
(PID.TID 0000.0001) // Begin OBCS MONITOR field statistics
(PID.TID 0000.0001) // =======================================================
(PID.TID 0000.0001) %MON obc_N_vVel_max               =  -1.0015988681255E-07
(PID.TID 0000.0001) %MON obc_N_vVel_min               =  -1.0015988681255E-07
(PID.TID 0000.0001) %MON obc_N_vVel_mean              =  -1.0015988681255E-07
(PID.TID 0000.0001) %MON obc_N_vVel_sd                =  -4.1020767071493E-28
(PID.TID 0000.0001) %MON obc_N_vVel_Int               =  -6.6105525296283E+00
(PID.TID 0000.0001) // =======================================================
(PID.TID 0000.0001) // End OBCS MONITOR field statistics
(PID.TID 0000.0001) // =======================================================
 cg2d: Sum(rhs),rhsMax =   3.01220593918873E+00  4.53052156100477E+02
(PID.TID 0000.0001)      cg2d_init_res =   1.96106380053821E-06
(PID.TID 0000.0001)      cg2d_iters(min,last) =      -1      66
(PID.TID 0000.0001)      cg2d_last_res =   7.88380134380743E-12
(PID.TID 0000.0001) // =======================================================
(PID.TID 0000.0001) // Begin MONITOR dynamic field statistics
(PID.TID 0000.0001) // =======================================================
(PID.TID 0000.0001) %MON time_tsnumber                =                   294
(PID.TID 0000.0001) %MON time_secondsf                =   2.9400000000000E+04
(PID.TID 0000.0001) %MON dynstat_eta_max              =   5.7963019601688E+00
(PID.TID 0000.0001) %MON dynstat_eta_min              =  -1.4177230046173E+01
(PID.TID 0000.0001) %MON dynstat_eta_mean             =  -2.5271970284595E+00
(PID.TID 0000.0001) %MON dynstat_eta_sd               =   4.9420166600861E+00
(PID.TID 0000.0001) %MON dynstat_eta_del2             =   1.9058059202457E-01
(PID.TID 0000.0001) %MON dynstat_uvel_max             =   1.6831140862710E-03
(PID.TID 0000.0001) %MON dynstat_uvel_min             =  -3.5853240461372E-03
(PID.TID 0000.0001) %MON dynstat_uvel_mean            =  -5.4545486185181E-10
(PID.TID 0000.0001) %MON dynstat_uvel_sd              =   9.7151068432656E-05
(PID.TID 0000.0001) %MON dynstat_uvel_del2            =   3.1818763620791E-07
(PID.TID 0000.0001) %MON dynstat_vvel_max             =   3.2846562654303E-03
(PID.TID 0000.0001) %MON dynstat_vvel_min             =  -1.6860706488391E-03
(PID.TID 0000.0001) %MON dynstat_vvel_mean            =  -9.2377796014704E-08
(PID.TID 0000.0001) %MON dynstat_vvel_sd              =   1.0232310036023E-04
(PID.TID 0000.0001) %MON dynstat_vvel_del2            =   3.5995247695107E-07
(PID.TID 0000.0001) %MON dynstat_wvel_max             =   1.8801739901205E-04
(PID.TID 0000.0001) %MON dynstat_wvel_min             =  -9.5187636386299E-05
(PID.TID 0000.0001) %MON dynstat_wvel_mean            =   1.3758560533799E-10
(PID.TID 0000.0001) %MON dynstat_wvel_sd              =   1.8761919022512E-05
(PID.TID 0000.0001) %MON dynstat_wvel_del2            =   9.3208817447422E-08
(PID.TID 0000.0001) %MON dynstat_theta_max            =   1.2000000000000E+00
(PID.TID 0000.0001) %MON dynstat_theta_min            =  -1.0000000000000E+00
(PID.TID 0000.0001) %MON dynstat_theta_mean           =   5.6544529232912E-01
(PID.TID 0000.0001) %MON dynstat_theta_sd             =   8.4905595646710E-01
(PID.TID 0000.0001) %MON dynstat_theta_del2           =   1.1056846087043E-06
(PID.TID 0000.0001) %MON dynstat_salt_max             =   3.4700000000000E+01
(PID.TID 0000.0001) %MON dynstat_salt_min             =   3.4000000000000E+01
(PID.TID 0000.0001) %MON dynstat_salt_mean            =   3.4498091534413E+01
(PID.TID 0000.0001) %MON dynstat_salt_sd              =   2.7015469767879E-01
(PID.TID 0000.0001) %MON dynstat_salt_del2            =   3.5739036870003E-07
(PID.TID 0000.0001) %MON advcfl_uvel_max              =   3.5853240461372E-04
(PID.TID 0000.0001) %MON advcfl_vvel_max              =   3.2846562654303E-04
(PID.TID 0000.0001) %MON advcfl_wvel_max              =   9.4008699506025E-04
(PID.TID 0000.0001) %MON advcfl_W_hf_max              =   9.4008699506025E-04
(PID.TID 0000.0001) %MON pe_b_mean                    =  -6.8285639700033E-01
(PID.TID 0000.0001) %MON ke_max                       =   5.2671501040167E-06
(PID.TID 0000.0001) %MON ke_mean                      =   9.8652937664327E-09
(PID.TID 0000.0001) %MON ke_vol                       =   4.6182884381837E+12
(PID.TID 0000.0001) // =======================================================
(PID.TID 0000.0001) // End MONITOR dynamic field statistics
(PID.TID 0000.0001) // =======================================================
(PID.TID 0000.0001) // =======================================================
(PID.TID 0000.0001) // Begin OBCS MONITOR field statistics
(PID.TID 0000.0001) // =======================================================
(PID.TID 0000.0001) %MON obc_N_vVel_max               =  -1.0081170807222E-07
(PID.TID 0000.0001) %MON obc_N_vVel_min               =  -1.0081170807222E-07
(PID.TID 0000.0001) %MON obc_N_vVel_mean              =  -1.0081170807222E-07
(PID.TID 0000.0001) %MON obc_N_vVel_sd                =   1.7896299268836E-14
(PID.TID 0000.0001) %MON obc_N_vVel_Int               =  -6.6535727327665E+00
(PID.TID 0000.0001) // =======================================================
(PID.TID 0000.0001) // End OBCS MONITOR field statistics
(PID.TID 0000.0001) // =======================================================
 cg2d: Sum(rhs),rhsMax =   3.01220370976509E+00  4.53052145184461E+02
(PID.TID 0000.0001)      cg2d_init_res =   1.95894168902927E-06
(PID.TID 0000.0001)      cg2d_iters(min,last) =      -1      66
(PID.TID 0000.0001)      cg2d_last_res =   7.84157535052106E-12
(PID.TID 0000.0001) // =======================================================
(PID.TID 0000.0001) // Begin MONITOR dynamic field statistics
(PID.TID 0000.0001) // =======================================================
(PID.TID 0000.0001) %MON time_tsnumber                =                   295
(PID.TID 0000.0001) %MON time_secondsf                =   2.9500000000000E+04
(PID.TID 0000.0001) %MON dynstat_eta_max              =   5.7963047205077E+00
(PID.TID 0000.0001) %MON dynstat_eta_min              =  -1.4177224573065E+01
(PID.TID 0000.0001) %MON dynstat_eta_mean             =  -2.5271950971142E+00
(PID.TID 0000.0001) %MON dynstat_eta_sd               =   4.9420160282837E+00
(PID.TID 0000.0001) %MON dynstat_eta_del2             =   1.9058059225630E-01
(PID.TID 0000.0001) %MON dynstat_uvel_max             =   1.6701839164792E-03
(PID.TID 0000.0001) %MON dynstat_uvel_min             =  -3.5827616509967E-03
(PID.TID 0000.0001) %MON dynstat_uvel_mean            =  -5.6659886525835E-10
(PID.TID 0000.0001) %MON dynstat_uvel_sd              =   9.7463210593784E-05
(PID.TID 0000.0001) %MON dynstat_uvel_del2            =   3.1753697085953E-07
(PID.TID 0000.0001) %MON dynstat_vvel_max             =   3.2823215024758E-03
(PID.TID 0000.0001) %MON dynstat_vvel_min             =  -1.6865192268956E-03
(PID.TID 0000.0001) %MON dynstat_vvel_mean            =  -9.2597248742489E-08
(PID.TID 0000.0001) %MON dynstat_vvel_sd              =   1.0240731607600E-04
(PID.TID 0000.0001) %MON dynstat_vvel_del2            =   3.5929162864453E-07
(PID.TID 0000.0001) %MON dynstat_wvel_max             =   1.8744554564179E-04
(PID.TID 0000.0001) %MON dynstat_wvel_min             =  -9.4915502105612E-05
(PID.TID 0000.0001) %MON dynstat_wvel_mean            =   1.3957700113397E-10
(PID.TID 0000.0001) %MON dynstat_wvel_sd              =   1.8734167634975E-05
(PID.TID 0000.0001) %MON dynstat_wvel_del2            =   9.3122002681249E-08
(PID.TID 0000.0001) %MON dynstat_theta_max            =   1.2000000000000E+00
(PID.TID 0000.0001) %MON dynstat_theta_min            =  -1.0000000000000E+00
(PID.TID 0000.0001) %MON dynstat_theta_mean           =   5.6544508877035E-01
(PID.TID 0000.0001) %MON dynstat_theta_sd             =   8.4905591340189E-01
(PID.TID 0000.0001) %MON dynstat_theta_del2           =   1.1022863180932E-06
(PID.TID 0000.0001) %MON dynstat_salt_max             =   3.4700000000000E+01
(PID.TID 0000.0001) %MON dynstat_salt_min             =   3.4000000000000E+01
(PID.TID 0000.0001) %MON dynstat_salt_mean            =   3.4498091453687E+01
(PID.TID 0000.0001) %MON dynstat_salt_sd              =   2.7015468549576E-01
(PID.TID 0000.0001) %MON dynstat_salt_del2            =   3.5648504980013E-07
(PID.TID 0000.0001) %MON advcfl_uvel_max              =   3.5827616509967E-04
(PID.TID 0000.0001) %MON advcfl_vvel_max              =   3.2823215024758E-04
(PID.TID 0000.0001) %MON advcfl_wvel_max              =   9.3722772820897E-04
(PID.TID 0000.0001) %MON advcfl_W_hf_max              =   9.3722772820897E-04
(PID.TID 0000.0001) %MON pe_b_mean                    =  -6.8285589506446E-01
(PID.TID 0000.0001) %MON ke_max                       =   5.2535580025367E-06
(PID.TID 0000.0001) %MON ke_mean                      =   9.9037169645498E-09
(PID.TID 0000.0001) %MON ke_vol                       =   4.6182884496510E+12
(PID.TID 0000.0001) // =======================================================
(PID.TID 0000.0001) // End MONITOR dynamic field statistics
(PID.TID 0000.0001) // =======================================================
(PID.TID 0000.0001) // =======================================================
(PID.TID 0000.0001) // Begin OBCS MONITOR field statistics
(PID.TID 0000.0001) // =======================================================
(PID.TID 0000.0001) %MON obc_N_vVel_max               =  -1.0112784211102E-07
(PID.TID 0000.0001) %MON obc_N_vVel_min               =  -1.0112784211102E-07
(PID.TID 0000.0001) %MON obc_N_vVel_mean              =  -1.0112784211102E-07
(PID.TID 0000.0001) %MON obc_N_vVel_sd                =  -1.0113196804933E-27
(PID.TID 0000.0001) %MON obc_N_vVel_Int               =  -6.6744375793273E+00
(PID.TID 0000.0001) // =======================================================
(PID.TID 0000.0001) // End OBCS MONITOR field statistics
(PID.TID 0000.0001) // =======================================================
 cg2d: Sum(rhs),rhsMax =   3.01220147762549E+00  4.53052134604444E+02
(PID.TID 0000.0001)      cg2d_init_res =   1.95734253327982E-06
(PID.TID 0000.0001)      cg2d_iters(min,last) =      -1      66
(PID.TID 0000.0001)      cg2d_last_res =   7.79406134066587E-12
(PID.TID 0000.0001) // =======================================================
(PID.TID 0000.0001) // Begin MONITOR dynamic field statistics
(PID.TID 0000.0001) // =======================================================
(PID.TID 0000.0001) %MON time_tsnumber                =                   296
(PID.TID 0000.0001) %MON time_secondsf                =   2.9600000000000E+04
(PID.TID 0000.0001) %MON dynstat_eta_max              =   5.7963074794757E+00
(PID.TID 0000.0001) %MON dynstat_eta_min              =  -1.4177219103169E+01
(PID.TID 0000.0001) %MON dynstat_eta_mean             =  -2.5271931653646E+00
(PID.TID 0000.0001) %MON dynstat_eta_sd               =   4.9420153969853E+00
(PID.TID 0000.0001) %MON dynstat_eta_del2             =   1.9058059250851E-01
(PID.TID 0000.0001) %MON dynstat_uvel_max             =   1.6571952177706E-03
(PID.TID 0000.0001) %MON dynstat_uvel_min             =  -3.5801300250524E-03
(PID.TID 0000.0001) %MON dynstat_uvel_mean            =  -5.9064113668160E-10
(PID.TID 0000.0001) %MON dynstat_uvel_sd              =   9.7776966955425E-05
(PID.TID 0000.0001) %MON dynstat_uvel_del2            =   3.1689205696686E-07
(PID.TID 0000.0001) %MON dynstat_vvel_max             =   3.2799314024903E-03
(PID.TID 0000.0001) %MON dynstat_vvel_min             =  -1.6868683324560E-03
(PID.TID 0000.0001) %MON dynstat_vvel_mean            =  -9.2390096261234E-08
(PID.TID 0000.0001) %MON dynstat_vvel_sd              =   1.0249164798734E-04
(PID.TID 0000.0001) %MON dynstat_vvel_del2            =   3.5863842974679E-07
(PID.TID 0000.0001) %MON dynstat_wvel_max             =   1.8687061805661E-04
(PID.TID 0000.0001) %MON dynstat_wvel_min             =  -9.3096536221942E-05
(PID.TID 0000.0001) %MON dynstat_wvel_mean            =   1.4174887564954E-10
(PID.TID 0000.0001) %MON dynstat_wvel_sd              =   1.8707113494930E-05
(PID.TID 0000.0001) %MON dynstat_wvel_del2            =   9.3040334300785E-08
(PID.TID 0000.0001) %MON dynstat_theta_max            =   1.2000000000000E+00
(PID.TID 0000.0001) %MON dynstat_theta_min            =  -1.0000000000000E+00
(PID.TID 0000.0001) %MON dynstat_theta_mean           =   5.6544488515786E-01
(PID.TID 0000.0001) %MON dynstat_theta_sd             =   8.4905587026529E-01
(PID.TID 0000.0001) %MON dynstat_theta_del2           =   1.0989189732093E-06
(PID.TID 0000.0001) %MON dynstat_salt_max             =   3.4700000000000E+01
(PID.TID 0000.0001) %MON dynstat_salt_min             =   3.4000000000000E+01
(PID.TID 0000.0001) %MON dynstat_salt_mean            =   3.4498091372939E+01
(PID.TID 0000.0001) %MON dynstat_salt_sd              =   2.7015467328650E-01
(PID.TID 0000.0001) %MON dynstat_salt_del2            =   3.5558955220955E-07
(PID.TID 0000.0001) %MON advcfl_uvel_max              =   3.5801300250524E-04
(PID.TID 0000.0001) %MON advcfl_vvel_max              =   3.2799314024903E-04
(PID.TID 0000.0001) %MON advcfl_wvel_max              =   9.3435309028305E-04
(PID.TID 0000.0001) %MON advcfl_W_hf_max              =   9.3435309028305E-04
(PID.TID 0000.0001) %MON pe_b_mean                    =  -6.8285539306806E-01
(PID.TID 0000.0001) %MON ke_max                       =   5.2399100310898E-06
(PID.TID 0000.0001) %MON ke_mean                      =   9.9424095889452E-09
(PID.TID 0000.0001) %MON ke_vol                       =   4.6182884611231E+12
(PID.TID 0000.0001) // =======================================================
(PID.TID 0000.0001) // End MONITOR dynamic field statistics
(PID.TID 0000.0001) // =======================================================
(PID.TID 0000.0001) // =======================================================
(PID.TID 0000.0001) // Begin OBCS MONITOR field statistics
(PID.TID 0000.0001) // =======================================================
(PID.TID 0000.0001) %MON obc_N_vVel_max               =  -1.0105544876390E-07
(PID.TID 0000.0001) %MON obc_N_vVel_min               =  -1.0105544876390E-07
(PID.TID 0000.0001) %MON obc_N_vVel_mean              =  -1.0105544876390E-07
(PID.TID 0000.0001) %MON obc_N_vVel_sd                =  -5.2538136287719E-28
(PID.TID 0000.0001) %MON obc_N_vVel_Int               =  -6.6696596184177E+00
(PID.TID 0000.0001) // =======================================================
(PID.TID 0000.0001) // End OBCS MONITOR field statistics
(PID.TID 0000.0001) // =======================================================
 cg2d: Sum(rhs),rhsMax =   3.01219924322506E+00  4.53052124374390E+02
(PID.TID 0000.0001)      cg2d_init_res =   1.95574114247364E-06
(PID.TID 0000.0001)      cg2d_iters(min,last) =      -1      66
(PID.TID 0000.0001)      cg2d_last_res =   7.74169645577656E-12
(PID.TID 0000.0001) // =======================================================
(PID.TID 0000.0001) // Begin MONITOR dynamic field statistics
(PID.TID 0000.0001) // =======================================================
(PID.TID 0000.0001) %MON time_tsnumber                =                   297
(PID.TID 0000.0001) %MON time_secondsf                =   2.9700000000000E+04
(PID.TID 0000.0001) %MON dynstat_eta_max              =   5.7963102359344E+00
(PID.TID 0000.0001) %MON dynstat_eta_min              =  -1.4177213637372E+01
(PID.TID 0000.0001) %MON dynstat_eta_mean             =  -2.5271912336705E+00
(PID.TID 0000.0001) %MON dynstat_eta_sd               =   4.9420147663796E+00
(PID.TID 0000.0001) %MON dynstat_eta_del2             =   1.9058059278211E-01
(PID.TID 0000.0001) %MON dynstat_uvel_max             =   1.6441488957870E-03
(PID.TID 0000.0001) %MON dynstat_uvel_min             =  -3.5774297391244E-03
(PID.TID 0000.0001) %MON dynstat_uvel_mean            =  -6.1724594920308E-10
(PID.TID 0000.0001) %MON dynstat_uvel_sd              =   9.8092322187192E-05
(PID.TID 0000.0001) %MON dynstat_uvel_del2            =   3.1625296169471E-07
(PID.TID 0000.0001) %MON dynstat_vvel_max             =   3.2774864484093E-03
(PID.TID 0000.0001) %MON dynstat_vvel_min             =  -1.6871152991946E-03
(PID.TID 0000.0001) %MON dynstat_vvel_mean            =  -9.1714576858142E-08
(PID.TID 0000.0001) %MON dynstat_vvel_sd              =   1.0257533986914E-04
(PID.TID 0000.0001) %MON dynstat_vvel_del2            =   3.5797797880937E-07
(PID.TID 0000.0001) %MON dynstat_wvel_max             =   1.8629266737845E-04
(PID.TID 0000.0001) %MON dynstat_wvel_min             =  -8.9746936806366E-05
(PID.TID 0000.0001) %MON dynstat_wvel_mean            =   1.4409249583015E-10
(PID.TID 0000.0001) %MON dynstat_wvel_sd              =   1.8678937870201E-05
(PID.TID 0000.0001) %MON dynstat_wvel_del2            =   9.2939066827049E-08
(PID.TID 0000.0001) %MON dynstat_theta_max            =   1.2000000000000E+00
(PID.TID 0000.0001) %MON dynstat_theta_min            =  -1.0000000000000E+00
(PID.TID 0000.0001) %MON dynstat_theta_mean           =   5.6544468149056E-01
(PID.TID 0000.0001) %MON dynstat_theta_sd             =   8.4905582706651E-01
(PID.TID 0000.0001) %MON dynstat_theta_del2           =   1.0955950952731E-06
(PID.TID 0000.0001) %MON dynstat_salt_max             =   3.4700000000000E+01
(PID.TID 0000.0001) %MON dynstat_salt_min             =   3.4000000000000E+01
(PID.TID 0000.0001) %MON dynstat_salt_mean            =   3.4498091292169E+01
(PID.TID 0000.0001) %MON dynstat_salt_sd              =   2.7015466105404E-01
(PID.TID 0000.0001) %MON dynstat_salt_del2            =   3.5470781505015E-07
(PID.TID 0000.0001) %MON advcfl_uvel_max              =   3.5774297391244E-04
(PID.TID 0000.0001) %MON advcfl_vvel_max              =   3.2774864484093E-04
(PID.TID 0000.0001) %MON advcfl_wvel_max              =   9.3146333689225E-04
(PID.TID 0000.0001) %MON advcfl_W_hf_max              =   9.3146333689225E-04
(PID.TID 0000.0001) %MON pe_b_mean                    =  -6.8285489110957E-01
(PID.TID 0000.0001) %MON ke_max                       =   5.2262092967409E-06
(PID.TID 0000.0001) %MON ke_mean                      =   9.9812941128117E-09
(PID.TID 0000.0001) %MON ke_vol                       =   4.6182884725977E+12
(PID.TID 0000.0001) // =======================================================
(PID.TID 0000.0001) // End MONITOR dynamic field statistics
(PID.TID 0000.0001) // =======================================================
(PID.TID 0000.0001) // =======================================================
(PID.TID 0000.0001) // Begin OBCS MONITOR field statistics
(PID.TID 0000.0001) // =======================================================
(PID.TID 0000.0001) %MON obc_N_vVel_max               =  -1.0055875674107E-07
(PID.TID 0000.0001) %MON obc_N_vVel_min               =  -1.0055875674107E-07
(PID.TID 0000.0001) %MON obc_N_vVel_mean              =  -1.0055875674107E-07
(PID.TID 0000.0001) %MON obc_N_vVel_sd                =   1.8715080601433E-14
(PID.TID 0000.0001) %MON obc_N_vVel_Int               =  -6.6368779449103E+00
(PID.TID 0000.0001) // =======================================================
(PID.TID 0000.0001) // End OBCS MONITOR field statistics
(PID.TID 0000.0001) // =======================================================
 cg2d: Sum(rhs),rhsMax =   3.01219700708877E+00  4.53052114502480E+02
(PID.TID 0000.0001)      cg2d_init_res =   1.95361169683352E-06
(PID.TID 0000.0001)      cg2d_iters(min,last) =      -1      66
(PID.TID 0000.0001)      cg2d_last_res =   7.68030110920383E-12
(PID.TID 0000.0001) // =======================================================
(PID.TID 0000.0001) // Begin MONITOR dynamic field statistics
(PID.TID 0000.0001) // =======================================================
(PID.TID 0000.0001) %MON time_tsnumber                =                   298
(PID.TID 0000.0001) %MON time_secondsf                =   2.9800000000000E+04
(PID.TID 0000.0001) %MON dynstat_eta_max              =   5.7963129887100E+00
(PID.TID 0000.0001) %MON dynstat_eta_min              =  -1.4177208176625E+01
(PID.TID 0000.0001) %MON dynstat_eta_mean             =  -2.5271893025178E+00
(PID.TID 0000.0001) %MON dynstat_eta_sd               =   4.9420141366495E+00
(PID.TID 0000.0001) %MON dynstat_eta_del2             =   1.9058059307736E-01
(PID.TID 0000.0001) %MON dynstat_uvel_max             =   1.6310458523385E-03
(PID.TID 0000.0001) %MON dynstat_uvel_min             =  -3.5746613636771E-03
(PID.TID 0000.0001) %MON dynstat_uvel_mean            =  -6.4590998270744E-10
(PID.TID 0000.0001) %MON dynstat_uvel_sd              =   9.8409260345251E-05
(PID.TID 0000.0001) %MON dynstat_uvel_del2            =   3.1561974965839E-07
(PID.TID 0000.0001) %MON dynstat_vvel_max             =   3.2749871152040E-03
(PID.TID 0000.0001) %MON dynstat_vvel_min             =  -1.6872575752132E-03
(PID.TID 0000.0001) %MON dynstat_vvel_mean            =  -9.0541007306586E-08
(PID.TID 0000.0001) %MON dynstat_vvel_sd              =   1.0265771125476E-04
(PID.TID 0000.0001) %MON dynstat_vvel_del2            =   3.5729713539163E-07
(PID.TID 0000.0001) %MON dynstat_wvel_max             =   1.8571174423784E-04
(PID.TID 0000.0001) %MON dynstat_wvel_min             =  -8.4909198790894E-05
(PID.TID 0000.0001) %MON dynstat_wvel_mean            =   1.4656060322196E-10
(PID.TID 0000.0001) %MON dynstat_wvel_sd              =   1.8648009564694E-05
(PID.TID 0000.0001) %MON dynstat_wvel_del2            =   9.2796579363502E-08
(PID.TID 0000.0001) %MON dynstat_theta_max            =   1.2000000000000E+00
(PID.TID 0000.0001) %MON dynstat_theta_min            =  -1.0000000000000E+00
(PID.TID 0000.0001) %MON dynstat_theta_mean           =   5.6544447776677E-01
(PID.TID 0000.0001) %MON dynstat_theta_sd             =   8.4905578382612E-01
(PID.TID 0000.0001) %MON dynstat_theta_del2           =   1.0923246977212E-06
(PID.TID 0000.0001) %MON dynstat_salt_max             =   3.4700000000000E+01
(PID.TID 0000.0001) %MON dynstat_salt_min             =   3.4000000000000E+01
(PID.TID 0000.0001) %MON dynstat_salt_mean            =   3.4498091211376E+01
(PID.TID 0000.0001) %MON dynstat_salt_sd              =   2.7015464880469E-01
(PID.TID 0000.0001) %MON dynstat_salt_del2            =   3.5384292560325E-07
(PID.TID 0000.0001) %MON advcfl_uvel_max              =   3.5746613636771E-04
(PID.TID 0000.0001) %MON advcfl_vvel_max              =   3.2749871152040E-04
(PID.TID 0000.0001) %MON advcfl_wvel_max              =   9.2855872118918E-04
(PID.TID 0000.0001) %MON advcfl_W_hf_max              =   9.2855872118918E-04
(PID.TID 0000.0001) %MON pe_b_mean                    =  -6.8285438929106E-01
(PID.TID 0000.0001) %MON ke_max                       =   5.2124588659014E-06
(PID.TID 0000.0001) %MON ke_mean                      =   1.0020300465624E-08
(PID.TID 0000.0001) %MON ke_vol                       =   4.6182884840720E+12
(PID.TID 0000.0001) // =======================================================
(PID.TID 0000.0001) // End MONITOR dynamic field statistics
(PID.TID 0000.0001) // =======================================================
(PID.TID 0000.0001) // =======================================================
(PID.TID 0000.0001) // Begin OBCS MONITOR field statistics
(PID.TID 0000.0001) // =======================================================
(PID.TID 0000.0001) %MON obc_N_vVel_max               =  -9.9609286363995E-08
(PID.TID 0000.0001) %MON obc_N_vVel_min               =  -9.9609286363999E-08
(PID.TID 0000.0001) %MON obc_N_vVel_mean              =  -9.9609286363995E-08
(PID.TID 0000.0001) %MON obc_N_vVel_sd                =   3.1875583852295E-14
(PID.TID 0000.0001) %MON obc_N_vVel_Int               =  -6.5742129000237E+00
(PID.TID 0000.0001) // =======================================================
(PID.TID 0000.0001) // End OBCS MONITOR field statistics
(PID.TID 0000.0001) // =======================================================
 cg2d: Sum(rhs),rhsMax =   3.01219476982356E+00  4.53052104988451E+02
(PID.TID 0000.0001)      cg2d_init_res =   1.95053071396406E-06
(PID.TID 0000.0001)      cg2d_iters(min,last) =      -1      66
(PID.TID 0000.0001)      cg2d_last_res =   7.59988761980425E-12
(PID.TID 0000.0001) // =======================================================
(PID.TID 0000.0001) // Begin MONITOR dynamic field statistics
(PID.TID 0000.0001) // =======================================================
(PID.TID 0000.0001) %MON time_tsnumber                =                   299
(PID.TID 0000.0001) %MON time_secondsf                =   2.9900000000000E+04
(PID.TID 0000.0001) %MON dynstat_eta_max              =   5.7963157366502E+00
(PID.TID 0000.0001) %MON dynstat_eta_min              =  -1.4177202721950E+01
(PID.TID 0000.0001) %MON dynstat_eta_mean             =  -2.5271873724144E+00
(PID.TID 0000.0001) %MON dynstat_eta_sd               =   4.9420135079644E+00
(PID.TID 0000.0001) %MON dynstat_eta_del2             =   1.9058059339423E-01
(PID.TID 0000.0001) %MON dynstat_uvel_max             =   1.6178869848034E-03
(PID.TID 0000.0001) %MON dynstat_uvel_min             =  -3.5718254690480E-03
(PID.TID 0000.0001) %MON dynstat_uvel_mean            =  -6.7599092879898E-10
(PID.TID 0000.0001) %MON dynstat_uvel_sd              =   9.8727764800775E-05
(PID.TID 0000.0001) %MON dynstat_uvel_del2            =   3.1499248247548E-07
(PID.TID 0000.0001) %MON dynstat_vvel_max             =   3.2724338677070E-03
(PID.TID 0000.0001) %MON dynstat_vvel_min             =  -1.6872927267446E-03
(PID.TID 0000.0001) %MON dynstat_vvel_mean            =  -8.8854540307861E-08
(PID.TID 0000.0001) %MON dynstat_vvel_sd              =   1.0273823996610E-04
(PID.TID 0000.0001) %MON dynstat_vvel_del2            =   3.5658613647670E-07
(PID.TID 0000.0001) %MON dynstat_wvel_max             =   1.8512789890686E-04
(PID.TID 0000.0001) %MON dynstat_wvel_min             =  -8.3788408338726E-05
(PID.TID 0000.0001) %MON dynstat_wvel_mean            =   1.4908912479921E-10
(PID.TID 0000.0001) %MON dynstat_wvel_sd              =   1.8613091978688E-05
(PID.TID 0000.0001) %MON dynstat_wvel_del2            =   9.2597077178399E-08
(PID.TID 0000.0001) %MON dynstat_theta_max            =   1.2000000000000E+00
(PID.TID 0000.0001) %MON dynstat_theta_min            =  -1.0000000000000E+00
(PID.TID 0000.0001) %MON dynstat_theta_mean           =   5.6544427398522E-01
(PID.TID 0000.0001) %MON dynstat_theta_sd             =   8.4905574057564E-01
(PID.TID 0000.0001) %MON dynstat_theta_del2           =   1.0891147577289E-06
(PID.TID 0000.0001) %MON dynstat_salt_max             =   3.4700000000000E+01
(PID.TID 0000.0001) %MON dynstat_salt_min             =   3.4000000000000E+01
(PID.TID 0000.0001) %MON dynstat_salt_mean            =   3.4498091130560E+01
(PID.TID 0000.0001) %MON dynstat_salt_sd              =   2.7015463654846E-01
(PID.TID 0000.0001) %MON dynstat_salt_del2            =   3.5299707487531E-07
(PID.TID 0000.0001) %MON advcfl_uvel_max              =   3.5718254690480E-04
(PID.TID 0000.0001) %MON advcfl_vvel_max              =   3.2724338677070E-04
(PID.TID 0000.0001) %MON advcfl_wvel_max              =   9.2563949453428E-04
(PID.TID 0000.0001) %MON advcfl_W_hf_max              =   9.2563949453428E-04
(PID.TID 0000.0001) %MON pe_b_mean                    =  -6.8285388771704E-01
(PID.TID 0000.0001) %MON ke_max                       =   5.1986617606172E-06
(PID.TID 0000.0001) %MON ke_mean                      =   1.0059374541423E-08
(PID.TID 0000.0001) %MON ke_vol                       =   4.6182884955430E+12
(PID.TID 0000.0001) // =======================================================
(PID.TID 0000.0001) // End MONITOR dynamic field statistics
(PID.TID 0000.0001) // =======================================================
(PID.TID 0000.0001) // =======================================================
(PID.TID 0000.0001) // Begin OBCS MONITOR field statistics
(PID.TID 0000.0001) // =======================================================
(PID.TID 0000.0001) %MON obc_N_vVel_max               =  -9.8190705189875E-08
(PID.TID 0000.0001) %MON obc_N_vVel_min               =  -9.8190705189877E-08
(PID.TID 0000.0001) %MON obc_N_vVel_mean              =  -9.8190705189877E-08
(PID.TID 0000.0001) %MON obc_N_vVel_sd                =  -6.3266644598725E-28
(PID.TID 0000.0001) %MON obc_N_vVel_Int               =  -6.4805865425319E+00
(PID.TID 0000.0001) // =======================================================
(PID.TID 0000.0001) // End OBCS MONITOR field statistics
(PID.TID 0000.0001) // =======================================================
 cg2d: Sum(rhs),rhsMax =   3.01219253208187E+00  4.53052095826060E+02
(PID.TID 0000.0001)      cg2d_init_res =   1.94620891237933E-06
(PID.TID 0000.0001)      cg2d_iters(min,last) =      -1      66
(PID.TID 0000.0001)      cg2d_last_res =   7.50269298493615E-12
(PID.TID 0000.0001) // =======================================================
(PID.TID 0000.0001) // Begin MONITOR dynamic field statistics
(PID.TID 0000.0001) // =======================================================
(PID.TID 0000.0001) %MON time_tsnumber                =                   300
(PID.TID 0000.0001) %MON time_secondsf                =   3.0000000000000E+04
(PID.TID 0000.0001) %MON dynstat_eta_max              =   5.7963184786500E+00
(PID.TID 0000.0001) %MON dynstat_eta_min              =  -1.4177197274404E+01
(PID.TID 0000.0001) %MON dynstat_eta_mean             =  -2.5271854438728E+00
(PID.TID 0000.0001) %MON dynstat_eta_sd               =   4.9420128804837E+00
(PID.TID 0000.0001) %MON dynstat_eta_del2             =   1.9058059373275E-01
(PID.TID 0000.0001) %MON dynstat_uvel_max             =   1.6046731854935E-03
(PID.TID 0000.0001) %MON dynstat_uvel_min             =  -3.5689226251179E-03
(PID.TID 0000.0001) %MON dynstat_uvel_mean            =  -7.0672963006646E-10
(PID.TID 0000.0001) %MON dynstat_uvel_sd              =   9.9047818148191E-05
(PID.TID 0000.0001) %MON dynstat_uvel_del2            =   3.1437121826462E-07
(PID.TID 0000.0001) %MON dynstat_vvel_max             =   3.2698271617546E-03
(PID.TID 0000.0001) %MON dynstat_vvel_min             =  -1.6872184420222E-03
(PID.TID 0000.0001) %MON dynstat_vvel_mean            =  -8.6657196080572E-08
(PID.TID 0000.0001) %MON dynstat_vvel_sd              =   1.0281662290530E-04
(PID.TID 0000.0001) %MON dynstat_vvel_del2            =   3.5583974954395E-07
(PID.TID 0000.0001) %MON dynstat_wvel_max             =   1.8454118155082E-04
(PID.TID 0000.0001) %MON dynstat_wvel_min             =  -8.8401541958932E-05
(PID.TID 0000.0001) %MON dynstat_wvel_mean            =   1.5159865787586E-10
(PID.TID 0000.0001) %MON dynstat_wvel_sd              =   1.8573494838799E-05
(PID.TID 0000.0001) %MON dynstat_wvel_del2            =   9.2332474124207E-08
(PID.TID 0000.0001) %MON dynstat_theta_max            =   1.2000000000000E+00
(PID.TID 0000.0001) %MON dynstat_theta_min            =  -1.0000000000000E+00
(PID.TID 0000.0001) %MON dynstat_theta_mean           =   5.6544407014487E-01
(PID.TID 0000.0001) %MON dynstat_theta_sd             =   8.4905569732008E-01
(PID.TID 0000.0001) %MON dynstat_theta_del2           =   1.0859684166849E-06
(PID.TID 0000.0001) %MON dynstat_salt_max             =   3.4700000000000E+01
(PID.TID 0000.0001) %MON dynstat_salt_min             =   3.4000000000000E+01
(PID.TID 0000.0001) %MON dynstat_salt_mean            =   3.4498091049721E+01
(PID.TID 0000.0001) %MON dynstat_salt_sd              =   2.7015462428692E-01
(PID.TID 0000.0001) %MON dynstat_salt_del2            =   3.5217120961520E-07
(PID.TID 0000.0001) %MON advcfl_uvel_max              =   3.5689226251179E-04
(PID.TID 0000.0001) %MON advcfl_vvel_max              =   3.2698271617546E-04
(PID.TID 0000.0001) %MON advcfl_wvel_max              =   9.2270590775412E-04
(PID.TID 0000.0001) %MON advcfl_W_hf_max              =   9.2270590775412E-04
(PID.TID 0000.0001) %MON pe_b_mean                    =  -6.8285338649098E-01
(PID.TID 0000.0001) %MON ke_max                       =   5.1848209591164E-06
(PID.TID 0000.0001) %MON ke_mean                      =   1.0098484512122E-08
(PID.TID 0000.0001) %MON ke_vol                       =   4.6182885070079E+12
(PID.TID 0000.0001) // =======================================================
(PID.TID 0000.0001) // End MONITOR dynamic field statistics
(PID.TID 0000.0001) // =======================================================
(PID.TID 0000.0001) // =======================================================
(PID.TID 0000.0001) // Begin OBCS MONITOR field statistics
(PID.TID 0000.0001) // =======================================================
(PID.TID 0000.0001) %MON obc_N_vVel_max               =  -9.6300601492068E-08
(PID.TID 0000.0001) %MON obc_N_vVel_min               =  -9.6300601492072E-08
(PID.TID 0000.0001) %MON obc_N_vVel_mean              =  -9.6300601492068E-08
(PID.TID 0000.0001) %MON obc_N_vVel_sd                =   2.8226751748531E-14
(PID.TID 0000.0001) %MON obc_N_vVel_Int               =  -6.3558396984765E+00
(PID.TID 0000.0001) // =======================================================
(PID.TID 0000.0001) // End OBCS MONITOR field statistics
(PID.TID 0000.0001) // =======================================================
 cg2d: Sum(rhs),rhsMax =   3.01219029452183E+00  4.53052087002430E+02
(PID.TID 0000.0001)      cg2d_init_res =   1.94050384426809E-06
(PID.TID 0000.0001)      cg2d_iters(min,last) =      -1      65
(PID.TID 0000.0001)      cg2d_last_res =   9.98066039895172E-12
(PID.TID 0000.0001) // =======================================================
(PID.TID 0000.0001) // Begin MONITOR dynamic field statistics
(PID.TID 0000.0001) // =======================================================
(PID.TID 0000.0001) %MON time_tsnumber                =                   301
(PID.TID 0000.0001) %MON time_secondsf                =   3.0100000000000E+04
(PID.TID 0000.0001) %MON dynstat_eta_max              =   5.7963212138793E+00
(PID.TID 0000.0001) %MON dynstat_eta_min              =  -1.4177191834423E+01
(PID.TID 0000.0001) %MON dynstat_eta_mean             =  -2.5271835173733E+00
(PID.TID 0000.0001) %MON dynstat_eta_sd               =   4.9420122543424E+00
(PID.TID 0000.0001) %MON dynstat_eta_del2             =   1.9058059409318E-01
(PID.TID 0000.0001) %MON dynstat_uvel_max             =   1.5914053416122E-03
(PID.TID 0000.0001) %MON dynstat_uvel_min             =  -3.5659533976882E-03
(PID.TID 0000.0001) %MON dynstat_uvel_mean            =  -7.3729922570941E-10
(PID.TID 0000.0001) %MON dynstat_uvel_sd              =   9.9369402123938E-05
(PID.TID 0000.0001) %MON dynstat_uvel_del2            =   3.1375601094782E-07
(PID.TID 0000.0001) %MON dynstat_vvel_max             =   3.2671674325950E-03
(PID.TID 0000.0001) %MON dynstat_vvel_min             =  -1.6870325257834E-03
(PID.TID 0000.0001) %MON dynstat_vvel_mean            =  -8.3968983147171E-08
(PID.TID 0000.0001) %MON dynstat_vvel_sd              =   1.0289280792196E-04
(PID.TID 0000.0001) %MON dynstat_vvel_del2            =   3.5505782908779E-07
(PID.TID 0000.0001) %MON dynstat_wvel_max             =   1.8395163181058E-04
(PID.TID 0000.0001) %MON dynstat_wvel_min             =  -9.1580116205899E-05
(PID.TID 0000.0001) %MON dynstat_wvel_mean            =   1.5399416273051E-10
(PID.TID 0000.0001) %MON dynstat_wvel_sd              =   1.8529153098810E-05
(PID.TID 0000.0001) %MON dynstat_wvel_del2            =   9.2003271106223E-08
(PID.TID 0000.0001) %MON dynstat_theta_max            =   1.2000000000000E+00
(PID.TID 0000.0001) %MON dynstat_theta_min            =  -1.0000000000000E+00
(PID.TID 0000.0001) %MON dynstat_theta_mean           =   5.6544386624268E-01
(PID.TID 0000.0001) %MON dynstat_theta_sd             =   8.4905565407840E-01
(PID.TID 0000.0001) %MON dynstat_theta_del2           =   1.0828839003614E-06
(PID.TID 0000.0001) %MON dynstat_salt_max             =   3.4700000000000E+01
(PID.TID 0000.0001) %MON dynstat_salt_min             =   3.4000000000000E+01
(PID.TID 0000.0001) %MON dynstat_salt_mean            =   3.4498090968857E+01
(PID.TID 0000.0001) %MON dynstat_salt_sd              =   2.7015461202597E-01
(PID.TID 0000.0001) %MON dynstat_salt_del2            =   3.5136476847933E-07
(PID.TID 0000.0001) %MON advcfl_uvel_max              =   3.5659533976882E-04
(PID.TID 0000.0001) %MON advcfl_vvel_max              =   3.2671674325950E-04
(PID.TID 0000.0001) %MON advcfl_wvel_max              =   9.1975815905290E-04
(PID.TID 0000.0001) %MON advcfl_W_hf_max              =   9.1975815905290E-04
(PID.TID 0000.0001) %MON pe_b_mean                    =  -6.8285288570497E-01
(PID.TID 0000.0001) %MON ke_max                       =   5.1709393830983E-06
(PID.TID 0000.0001) %MON ke_mean                      =   1.0137624190822E-08
(PID.TID 0000.0001) %MON ke_vol                       =   4.6182885184634E+12
(PID.TID 0000.0001) // =======================================================
(PID.TID 0000.0001) // End MONITOR dynamic field statistics
(PID.TID 0000.0001) // =======================================================
(PID.TID 0000.0001) // =======================================================
(PID.TID 0000.0001) // Begin OBCS MONITOR field statistics
(PID.TID 0000.0001) // =======================================================
(PID.TID 0000.0001) %MON obc_N_vVel_max               =  -9.3951857315421E-08
(PID.TID 0000.0001) %MON obc_N_vVel_min               =  -9.3951857315422E-08
(PID.TID 0000.0001) %MON obc_N_vVel_mean              =  -9.3951857315422E-08
(PID.TID 0000.0001) %MON obc_N_vVel_sd                =  -5.5693579908603E-28
(PID.TID 0000.0001) %MON obc_N_vVel_Int               =  -6.2008225828178E+00
(PID.TID 0000.0001) // =======================================================
(PID.TID 0000.0001) // End OBCS MONITOR field statistics
(PID.TID 0000.0001) // =======================================================
 cg2d: Sum(rhs),rhsMax =   3.01218805780910E+00  4.53052078498009E+02
(PID.TID 0000.0001)      cg2d_init_res =   1.93349371056974E-06
(PID.TID 0000.0001)      cg2d_iters(min,last) =      -1      65
(PID.TID 0000.0001)      cg2d_last_res =   9.94447762605505E-12
(PID.TID 0000.0001) // =======================================================
(PID.TID 0000.0001) // Begin MONITOR dynamic field statistics
(PID.TID 0000.0001) // =======================================================
(PID.TID 0000.0001) %MON time_tsnumber                =                   302
(PID.TID 0000.0001) %MON time_secondsf                =   3.0200000000000E+04
(PID.TID 0000.0001) %MON dynstat_eta_max              =   5.7963239408850E+00
(PID.TID 0000.0001) %MON dynstat_eta_min              =  -1.4177186404136E+01
(PID.TID 0000.0001) %MON dynstat_eta_mean             =  -2.5271815933654E+00
(PID.TID 0000.0001) %MON dynstat_eta_sd               =   4.9420116296639E+00
(PID.TID 0000.0001) %MON dynstat_eta_del2             =   1.9058059447563E-01
(PID.TID 0000.0001) %MON dynstat_uvel_max             =   1.5780843329392E-03
(PID.TID 0000.0001) %MON dynstat_uvel_min             =  -3.5629183676831E-03
(PID.TID 0000.0001) %MON dynstat_uvel_mean            =  -7.6676759102686E-10
(PID.TID 0000.0001) %MON dynstat_uvel_sd              =   9.9692497604308E-05
(PID.TID 0000.0001) %MON dynstat_uvel_del2            =   3.1314691012826E-07
(PID.TID 0000.0001) %MON dynstat_vvel_max             =   3.2644551506049E-03
(PID.TID 0000.0001) %MON dynstat_vvel_min             =  -1.6867329436874E-03
(PID.TID 0000.0001) %MON dynstat_vvel_mean            =  -8.0828915541978E-08
(PID.TID 0000.0001) %MON dynstat_vvel_sd              =   1.0296699279862E-04
(PID.TID 0000.0001) %MON dynstat_vvel_del2            =   3.5424521299646E-07
(PID.TID 0000.0001) %MON dynstat_wvel_max             =   1.8335933341739E-04
(PID.TID 0000.0001) %MON dynstat_wvel_min             =  -9.4937701743407E-05
(PID.TID 0000.0001) %MON dynstat_wvel_mean            =   1.5616938653512E-10
(PID.TID 0000.0001) %MON dynstat_wvel_sd              =   1.8480624259623E-05
(PID.TID 0000.0001) %MON dynstat_wvel_del2            =   9.1618357000007E-08
(PID.TID 0000.0001) %MON dynstat_theta_max            =   1.2000000000000E+00
(PID.TID 0000.0001) %MON dynstat_theta_min            =  -1.0000000000000E+00
(PID.TID 0000.0001) %MON dynstat_theta_mean           =   5.6544366227561E-01
(PID.TID 0000.0001) %MON dynstat_theta_sd             =   8.4905561080859E-01
(PID.TID 0000.0001) %MON dynstat_theta_del2           =   1.0798548107816E-06
(PID.TID 0000.0001) %MON dynstat_salt_max             =   3.4700000000000E+01
(PID.TID 0000.0001) %MON dynstat_salt_min             =   3.4000000000000E+01
(PID.TID 0000.0001) %MON dynstat_salt_mean            =   3.4498090887966E+01
(PID.TID 0000.0001) %MON dynstat_salt_sd              =   2.7015459975213E-01
(PID.TID 0000.0001) %MON dynstat_salt_del2            =   3.5057575668538E-07
(PID.TID 0000.0001) %MON advcfl_uvel_max              =   3.5629183676831E-04
(PID.TID 0000.0001) %MON advcfl_vvel_max              =   3.2644551506049E-04
(PID.TID 0000.0001) %MON advcfl_wvel_max              =   9.1679666708693E-04
(PID.TID 0000.0001) %MON advcfl_W_hf_max              =   9.1679666708693E-04
(PID.TID 0000.0001) %MON pe_b_mean                    =  -6.8285238544284E-01
(PID.TID 0000.0001) %MON ke_max                       =   5.1570199559696E-06
(PID.TID 0000.0001) %MON ke_mean                      =   1.0176813025058E-08
(PID.TID 0000.0001) %MON ke_vol                       =   4.6182885299068E+12
(PID.TID 0000.0001) // =======================================================
(PID.TID 0000.0001) // End MONITOR dynamic field statistics
(PID.TID 0000.0001) // =======================================================
(PID.TID 0000.0001) // =======================================================
(PID.TID 0000.0001) // Begin OBCS MONITOR field statistics
(PID.TID 0000.0001) // =======================================================
(PID.TID 0000.0001) %MON obc_N_vVel_max               =  -9.1172548666862E-08
(PID.TID 0000.0001) %MON obc_N_vVel_min               =  -9.1172548666862E-08
(PID.TID 0000.0001) %MON obc_N_vVel_mean              =  -9.1172548666862E-08
(PID.TID 0000.0001) %MON obc_N_vVel_sd                =  -2.0510383535746E-29
(PID.TID 0000.0001) %MON obc_N_vVel_Int               =  -6.0173882120129E+00
(PID.TID 0000.0001) // =======================================================
(PID.TID 0000.0001) // End OBCS MONITOR field statistics
(PID.TID 0000.0001) // =======================================================
 cg2d: Sum(rhs),rhsMax =   3.01218582257692E+00  4.53052070288233E+02
(PID.TID 0000.0001)      cg2d_init_res =   1.92535051620470E-06
(PID.TID 0000.0001)      cg2d_iters(min,last) =      -1      65
(PID.TID 0000.0001)      cg2d_last_res =   9.89641381912520E-12
(PID.TID 0000.0001) // =======================================================
(PID.TID 0000.0001) // Begin MONITOR dynamic field statistics
(PID.TID 0000.0001) // =======================================================
(PID.TID 0000.0001) %MON time_tsnumber                =                   303
(PID.TID 0000.0001) %MON time_secondsf                =   3.0300000000000E+04
(PID.TID 0000.0001) %MON dynstat_eta_max              =   5.7963266591937E+00
(PID.TID 0000.0001) %MON dynstat_eta_min              =  -1.4177180983835E+01
(PID.TID 0000.0001) %MON dynstat_eta_mean             =  -2.5271796722432E+00
(PID.TID 0000.0001) %MON dynstat_eta_sd               =   4.9420110065219E+00
(PID.TID 0000.0001) %MON dynstat_eta_del2             =   1.9058059487969E-01
(PID.TID 0000.0001) %MON dynstat_uvel_max             =   1.5647110428851E-03
(PID.TID 0000.0001) %MON dynstat_uvel_min             =  -3.5598180982672E-03
(PID.TID 0000.0001) %MON dynstat_uvel_mean            =  -7.9424436922370E-10
(PID.TID 0000.0001) %MON dynstat_uvel_sd              =   1.0001708451928E-04
(PID.TID 0000.0001) %MON dynstat_uvel_del2            =   3.1254396018383E-07
(PID.TID 0000.0001) %MON dynstat_vvel_max             =   3.2616907023790E-03
(PID.TID 0000.0001) %MON dynstat_vvel_min             =  -1.6863177411697E-03
(PID.TID 0000.0001) %MON dynstat_vvel_mean            =  -7.7294530477323E-08
(PID.TID 0000.0001) %MON dynstat_vvel_sd              =   1.0303959246346E-04
(PID.TID 0000.0001) %MON dynstat_vvel_del2            =   3.5341098490185E-07
(PID.TID 0000.0001) %MON dynstat_wvel_max             =   1.8276430267274E-04
(PID.TID 0000.0001) %MON dynstat_wvel_min             =  -9.6848745876481E-05
(PID.TID 0000.0001) %MON dynstat_wvel_mean            =   1.5806297633482E-10
(PID.TID 0000.0001) %MON dynstat_wvel_sd              =   1.8429005753408E-05
(PID.TID 0000.0001) %MON dynstat_wvel_del2            =   9.1193774812000E-08
(PID.TID 0000.0001) %MON dynstat_theta_max            =   1.2000000000000E+00
(PID.TID 0000.0001) %MON dynstat_theta_min            =  -1.0000000000000E+00
(PID.TID 0000.0001) %MON dynstat_theta_mean           =   5.6544345824062E-01
(PID.TID 0000.0001) %MON dynstat_theta_sd             =   8.4905556752074E-01
(PID.TID 0000.0001) %MON dynstat_theta_del2           =   1.0768710518554E-06
(PID.TID 0000.0001) %MON dynstat_salt_max             =   3.4700000000000E+01
(PID.TID 0000.0001) %MON dynstat_salt_min             =   3.4000000000000E+01
(PID.TID 0000.0001) %MON dynstat_salt_mean            =   3.4498090807049E+01
(PID.TID 0000.0001) %MON dynstat_salt_sd              =   2.7015458746827E-01
(PID.TID 0000.0001) %MON dynstat_salt_del2            =   3.4980102763466E-07
(PID.TID 0000.0001) %MON advcfl_uvel_max              =   3.5598180982672E-04
(PID.TID 0000.0001) %MON advcfl_vvel_max              =   3.2616907023790E-04
(PID.TID 0000.0001) %MON advcfl_wvel_max              =   9.1382151336372E-04
(PID.TID 0000.0001) %MON advcfl_W_hf_max              =   9.1382151336372E-04
(PID.TID 0000.0001) %MON pe_b_mean                    =  -6.8285188577422E-01
(PID.TID 0000.0001) %MON ke_max                       =   5.1430654780215E-06
(PID.TID 0000.0001) %MON ke_mean                      =   1.0216092798777E-08
(PID.TID 0000.0001) %MON ke_vol                       =   4.6182885413354E+12
(PID.TID 0000.0001) // =======================================================
(PID.TID 0000.0001) // End MONITOR dynamic field statistics
(PID.TID 0000.0001) // =======================================================
(PID.TID 0000.0001) // =======================================================
(PID.TID 0000.0001) // Begin OBCS MONITOR field statistics
(PID.TID 0000.0001) // =======================================================
(PID.TID 0000.0001) %MON obc_N_vVel_max               =  -8.8012104791796E-08
(PID.TID 0000.0001) %MON obc_N_vVel_min               =  -8.8012104791797E-08
(PID.TID 0000.0001) %MON obc_N_vVel_mean              =  -8.8012104791796E-08
(PID.TID 0000.0001) %MON obc_N_vVel_sd                =   1.7222418539889E-14
(PID.TID 0000.0001) %MON obc_N_vVel_Int               =  -5.8087989162585E+00
(PID.TID 0000.0001) // =======================================================
(PID.TID 0000.0001) // End OBCS MONITOR field statistics
(PID.TID 0000.0001) // =======================================================
 cg2d: Sum(rhs),rhsMax =   3.01218358944744E+00  4.53052062342341E+02
(PID.TID 0000.0001)      cg2d_init_res =   1.91651900079379E-06
(PID.TID 0000.0001)      cg2d_iters(min,last) =      -1      65
(PID.TID 0000.0001)      cg2d_last_res =   9.84279826922640E-12
(PID.TID 0000.0001) // =======================================================
(PID.TID 0000.0001) // Begin MONITOR dynamic field statistics
(PID.TID 0000.0001) // =======================================================
(PID.TID 0000.0001) %MON time_tsnumber                =                   304
(PID.TID 0000.0001) %MON time_secondsf                =   3.0400000000000E+04
(PID.TID 0000.0001) %MON dynstat_eta_max              =   5.7963293682262E+00
(PID.TID 0000.0001) %MON dynstat_eta_min              =  -1.4177175574223E+01
(PID.TID 0000.0001) %MON dynstat_eta_mean             =  -2.5271777543573E+00
(PID.TID 0000.0001) %MON dynstat_eta_sd               =   4.9420103849697E+00
(PID.TID 0000.0001) %MON dynstat_eta_del2             =   1.9058059530520E-01
(PID.TID 0000.0001) %MON dynstat_uvel_max             =   1.5512863416749E-03
(PID.TID 0000.0001) %MON dynstat_uvel_min             =  -3.5566531625333E-03
(PID.TID 0000.0001) %MON dynstat_uvel_mean            =  -8.1881164673270E-10
(PID.TID 0000.0001) %MON dynstat_uvel_sd              =   1.0034314189124E-04
(PID.TID 0000.0001) %MON dynstat_uvel_del2            =   3.1194719992966E-07
(PID.TID 0000.0001) %MON dynstat_vvel_max             =   3.2588745134534E-03
(PID.TID 0000.0001) %MON dynstat_vvel_min             =  -1.6857851230760E-03
(PID.TID 0000.0001) %MON dynstat_vvel_mean            =  -7.3439820637973E-08
(PID.TID 0000.0001) %MON dynstat_vvel_sd              =   1.0311117966104E-04
(PID.TID 0000.0001) %MON dynstat_vvel_del2            =   3.5256721870977E-07
(PID.TID 0000.0001) %MON dynstat_wvel_max             =   1.8216660189234E-04
(PID.TID 0000.0001) %MON dynstat_wvel_min             =  -9.6766908259938E-05
(PID.TID 0000.0001) %MON dynstat_wvel_mean            =   1.5952976125533E-10
(PID.TID 0000.0001) %MON dynstat_wvel_sd              =   1.8375785615656E-05
(PID.TID 0000.0001) %MON dynstat_wvel_del2            =   9.0750614323446E-08
(PID.TID 0000.0001) %MON dynstat_theta_max            =   1.2000000000000E+00
(PID.TID 0000.0001) %MON dynstat_theta_min            =  -1.0000000000000E+00
(PID.TID 0000.0001) %MON dynstat_theta_mean           =   5.6544325413670E-01
(PID.TID 0000.0001) %MON dynstat_theta_sd             =   8.4905552422501E-01
(PID.TID 0000.0001) %MON dynstat_theta_del2           =   1.0739214038284E-06
(PID.TID 0000.0001) %MON dynstat_salt_max             =   3.4700000000000E+01
(PID.TID 0000.0001) %MON dynstat_salt_min             =   3.4000000000000E+01
(PID.TID 0000.0001) %MON dynstat_salt_mean            =   3.4498090726103E+01
(PID.TID 0000.0001) %MON dynstat_salt_sd              =   2.7015457517776E-01
(PID.TID 0000.0001) %MON dynstat_salt_del2            =   3.4903707845495E-07
(PID.TID 0000.0001) %MON advcfl_uvel_max              =   3.5566531625333E-04
(PID.TID 0000.0001) %MON advcfl_vvel_max              =   3.2588745134534E-04
(PID.TID 0000.0001) %MON advcfl_wvel_max              =   9.1083300946169E-04
(PID.TID 0000.0001) %MON advcfl_W_hf_max              =   9.1083300946169E-04
(PID.TID 0000.0001) %MON pe_b_mean                    =  -6.8285138675822E-01
(PID.TID 0000.0001) %MON ke_max                       =   5.1290787553308E-06
(PID.TID 0000.0001) %MON ke_mean                      =   1.0255521590168E-08
(PID.TID 0000.0001) %MON ke_vol                       =   4.6182885527469E+12
(PID.TID 0000.0001) // =======================================================
(PID.TID 0000.0001) // End MONITOR dynamic field statistics
(PID.TID 0000.0001) // =======================================================
(PID.TID 0000.0001) // =======================================================
(PID.TID 0000.0001) // Begin OBCS MONITOR field statistics
(PID.TID 0000.0001) // =======================================================
(PID.TID 0000.0001) %MON obc_N_vVel_max               =  -8.4526974881727E-08
(PID.TID 0000.0001) %MON obc_N_vVel_min               =  -8.4526974881730E-08
(PID.TID 0000.0001) %MON obc_N_vVel_mean              =  -8.4526974881727E-08
(PID.TID 0000.0001) %MON obc_N_vVel_sd                =   2.3194894640001E-14
(PID.TID 0000.0001) %MON obc_N_vVel_Int               =  -5.5787803421940E+00
(PID.TID 0000.0001) // =======================================================
(PID.TID 0000.0001) // End OBCS MONITOR field statistics
(PID.TID 0000.0001) // =======================================================
 cg2d: Sum(rhs),rhsMax =   3.01218135897344E+00  4.53052054625179E+02
(PID.TID 0000.0001)      cg2d_init_res =   1.90747104079869E-06
(PID.TID 0000.0001)      cg2d_iters(min,last) =      -1      65
(PID.TID 0000.0001)      cg2d_last_res =   9.79516912035230E-12
(PID.TID 0000.0001) // =======================================================
(PID.TID 0000.0001) // Begin MONITOR dynamic field statistics
(PID.TID 0000.0001) // =======================================================
(PID.TID 0000.0001) %MON time_tsnumber                =                   305
(PID.TID 0000.0001) %MON time_secondsf                =   3.0500000000000E+04
(PID.TID 0000.0001) %MON dynstat_eta_max              =   5.7963320675077E+00
(PID.TID 0000.0001) %MON dynstat_eta_min              =  -1.4177170175711E+01
(PID.TID 0000.0001) %MON dynstat_eta_mean             =  -2.5271758399752E+00
(PID.TID 0000.0001) %MON dynstat_eta_sd               =   4.9420097650200E+00
(PID.TID 0000.0001) %MON dynstat_eta_del2             =   1.9058059575185E-01
(PID.TID 0000.0001) %MON dynstat_uvel_max             =   1.5378110976982E-03
(PID.TID 0000.0001) %MON dynstat_uvel_min             =  -3.5534241316137E-03
(PID.TID 0000.0001) %MON dynstat_uvel_mean            =  -8.3963893661691E-10
(PID.TID 0000.0001) %MON dynstat_uvel_sd              =   1.0067064780562E-04
(PID.TID 0000.0001) %MON dynstat_uvel_del2            =   3.1135666214538E-07
(PID.TID 0000.0001) %MON dynstat_vvel_max             =   3.2560069845040E-03
(PID.TID 0000.0001) %MON dynstat_vvel_min             =  -1.6851334211054E-03
(PID.TID 0000.0001) %MON dynstat_vvel_mean            =  -6.9354575472036E-08
(PID.TID 0000.0001) %MON dynstat_vvel_sd              =   1.0318240743224E-04
(PID.TID 0000.0001) %MON dynstat_vvel_del2            =   3.5172737362098E-07
(PID.TID 0000.0001) %MON dynstat_wvel_max             =   1.8156628087008E-04
(PID.TID 0000.0001) %MON dynstat_wvel_min             =  -9.4709859093802E-05
(PID.TID 0000.0001) %MON dynstat_wvel_mean            =   1.6049571010916E-10
(PID.TID 0000.0001) %MON dynstat_wvel_sd              =   1.8322645101031E-05
(PID.TID 0000.0001) %MON dynstat_wvel_del2            =   9.0312275020416E-08
(PID.TID 0000.0001) %MON dynstat_theta_max            =   1.2000000000000E+00
(PID.TID 0000.0001) %MON dynstat_theta_min            =  -1.0000000000000E+00
(PID.TID 0000.0001) %MON dynstat_theta_mean           =   5.6544304996322E-01
(PID.TID 0000.0001) %MON dynstat_theta_sd             =   8.4905548088894E-01
(PID.TID 0000.0001) %MON dynstat_theta_del2           =   1.0709940729355E-06
(PID.TID 0000.0001) %MON dynstat_salt_max             =   3.4700000000000E+01
(PID.TID 0000.0001) %MON dynstat_salt_min             =   3.4000000000000E+01
(PID.TID 0000.0001) %MON dynstat_salt_mean            =   3.4498090645130E+01
(PID.TID 0000.0001) %MON dynstat_salt_sd              =   2.7015456287008E-01
(PID.TID 0000.0001) %MON dynstat_salt_del2            =   3.4828026043957E-07
(PID.TID 0000.0001) %MON advcfl_uvel_max              =   3.5534241316137E-04
(PID.TID 0000.0001) %MON advcfl_vvel_max              =   3.2560069845040E-04
(PID.TID 0000.0001) %MON advcfl_wvel_max              =   9.0783140435038E-04
(PID.TID 0000.0001) %MON advcfl_W_hf_max              =   9.0783140435038E-04
(PID.TID 0000.0001) %MON pe_b_mean                    =  -6.8285088843510E-01
(PID.TID 0000.0001) %MON ke_max                       =   5.1150625334057E-06
(PID.TID 0000.0001) %MON ke_mean                      =   1.0295165818204E-08
(PID.TID 0000.0001) %MON ke_vol                       =   4.6182885641391E+12
(PID.TID 0000.0001) // =======================================================
(PID.TID 0000.0001) // End MONITOR dynamic field statistics
(PID.TID 0000.0001) // =======================================================
(PID.TID 0000.0001) // =======================================================
(PID.TID 0000.0001) // Begin OBCS MONITOR field statistics
(PID.TID 0000.0001) // =======================================================
(PID.TID 0000.0001) %MON obc_N_vVel_max               =  -8.0794812804806E-08
(PID.TID 0000.0001) %MON obc_N_vVel_min               =  -8.0794812804807E-08
(PID.TID 0000.0001) %MON obc_N_vVel_mean              =  -8.0794812804807E-08
(PID.TID 0000.0001) %MON obc_N_vVel_sd                =   8.3318521145931E-15
(PID.TID 0000.0001) %MON obc_N_vVel_Int               =  -5.3324576451173E+00
(PID.TID 0000.0001) // =======================================================
(PID.TID 0000.0001) // End OBCS MONITOR field statistics
(PID.TID 0000.0001) // =======================================================
 cg2d: Sum(rhs),rhsMax =   3.01217913160119E+00  4.53052047097882E+02
(PID.TID 0000.0001)      cg2d_init_res =   1.89871013452670E-06
(PID.TID 0000.0001)      cg2d_iters(min,last) =      -1      65
(PID.TID 0000.0001)      cg2d_last_res =   9.74447956896546E-12
(PID.TID 0000.0001) // =======================================================
(PID.TID 0000.0001) // Begin MONITOR dynamic field statistics
(PID.TID 0000.0001) // =======================================================
(PID.TID 0000.0001) %MON time_tsnumber                =                   306
(PID.TID 0000.0001) %MON time_secondsf                =   3.0600000000000E+04
(PID.TID 0000.0001) %MON dynstat_eta_max              =   5.7963347567014E+00
(PID.TID 0000.0001) %MON dynstat_eta_min              =  -1.4177164788479E+01
(PID.TID 0000.0001) %MON dynstat_eta_mean             =  -2.5271739292545E+00
(PID.TID 0000.0001) %MON dynstat_eta_sd               =   4.9420091466301E+00
(PID.TID 0000.0001) %MON dynstat_eta_del2             =   1.9058059621914E-01
(PID.TID 0000.0001) %MON dynstat_uvel_max             =   1.5261495279972E-03
(PID.TID 0000.0001) %MON dynstat_uvel_min             =  -3.5501315778257E-03
(PID.TID 0000.0001) %MON dynstat_uvel_mean            =  -8.5599540851356E-10
(PID.TID 0000.0001) %MON dynstat_uvel_sd              =   1.0099957944769E-04
(PID.TID 0000.0001) %MON dynstat_uvel_del2            =   3.1077237363512E-07
(PID.TID 0000.0001) %MON dynstat_vvel_max             =   3.2530885462894E-03
(PID.TID 0000.0001) %MON dynstat_vvel_min             =  -1.6843610970767E-03
(PID.TID 0000.0001) %MON dynstat_vvel_mean            =  -6.5141320456729E-08
(PID.TID 0000.0001) %MON dynstat_vvel_sd              =   1.0325392443943E-04
(PID.TID 0000.0001) %MON dynstat_vvel_del2            =   3.5090455586260E-07
(PID.TID 0000.0001) %MON dynstat_wvel_max             =   1.8096338931592E-04
(PID.TID 0000.0001) %MON dynstat_wvel_min             =  -9.0792473187043E-05
(PID.TID 0000.0001) %MON dynstat_wvel_mean            =   1.6088318965263E-10
(PID.TID 0000.0001) %MON dynstat_wvel_sd              =   1.8271239922068E-05
(PID.TID 0000.0001) %MON dynstat_wvel_del2            =   8.9901432618088E-08
(PID.TID 0000.0001) %MON dynstat_theta_max            =   1.2000000000000E+00
(PID.TID 0000.0001) %MON dynstat_theta_min            =  -1.0000000000000E+00
(PID.TID 0000.0001) %MON dynstat_theta_mean           =   5.6544284571813E-01
(PID.TID 0000.0001) %MON dynstat_theta_sd             =   8.4905543748242E-01
(PID.TID 0000.0001) %MON dynstat_theta_del2           =   1.0680775463030E-06
(PID.TID 0000.0001) %MON dynstat_salt_max             =   3.4700000000000E+01
(PID.TID 0000.0001) %MON dynstat_salt_min             =   3.4000000000000E+01
(PID.TID 0000.0001) %MON dynstat_salt_mean            =   3.4498090564128E+01
(PID.TID 0000.0001) %MON dynstat_salt_sd              =   2.7015455053565E-01
(PID.TID 0000.0001) %MON dynstat_salt_del2            =   3.4752702695290E-07
(PID.TID 0000.0001) %MON advcfl_uvel_max              =   3.5501315778257E-04
(PID.TID 0000.0001) %MON advcfl_vvel_max              =   3.2530885462894E-04
(PID.TID 0000.0001) %MON advcfl_wvel_max              =   9.0481694657960E-04
(PID.TID 0000.0001) %MON advcfl_W_hf_max              =   9.0481694657960E-04
(PID.TID 0000.0001) %MON pe_b_mean                    =  -6.8285039081796E-01
(PID.TID 0000.0001) %MON ke_max                       =   5.1010198309985E-06
(PID.TID 0000.0001) %MON ke_mean                      =   1.0335091525546E-08
(PID.TID 0000.0001) %MON ke_vol                       =   4.6182885755105E+12
(PID.TID 0000.0001) // =======================================================
(PID.TID 0000.0001) // End MONITOR dynamic field statistics
(PID.TID 0000.0001) // =======================================================
(PID.TID 0000.0001) // =======================================================
(PID.TID 0000.0001) // Begin OBCS MONITOR field statistics
(PID.TID 0000.0001) // =======================================================
(PID.TID 0000.0001) %MON obc_N_vVel_max               =  -7.6903737652763E-08
(PID.TID 0000.0001) %MON obc_N_vVel_min               =  -7.6903737652765E-08
(PID.TID 0000.0001) %MON obc_N_vVel_mean              =  -7.6903737652765E-08
(PID.TID 0000.0001) %MON obc_N_vVel_sd                =  -2.2955852341931E-28
(PID.TID 0000.0001) %MON obc_N_vVel_Int               =  -5.0756466850825E+00
(PID.TID 0000.0001) // =======================================================
(PID.TID 0000.0001) // End OBCS MONITOR field statistics
(PID.TID 0000.0001) // =======================================================
 cg2d: Sum(rhs),rhsMax =   3.01217690767722E+00  4.53052039718729E+02
(PID.TID 0000.0001)      cg2d_init_res =   1.89072056968631E-06
(PID.TID 0000.0001)      cg2d_iters(min,last) =      -1      65
(PID.TID 0000.0001)      cg2d_last_res =   9.69447425019131E-12
(PID.TID 0000.0001) // =======================================================
(PID.TID 0000.0001) // Begin MONITOR dynamic field statistics
(PID.TID 0000.0001) // =======================================================
(PID.TID 0000.0001) %MON time_tsnumber                =                   307
(PID.TID 0000.0001) %MON time_secondsf                =   3.0700000000000E+04
(PID.TID 0000.0001) %MON dynstat_eta_max              =   5.7963374357132E+00
(PID.TID 0000.0001) %MON dynstat_eta_min              =  -1.4177159412514E+01
(PID.TID 0000.0001) %MON dynstat_eta_mean             =  -2.5271720222534E+00
(PID.TID 0000.0001) %MON dynstat_eta_sd               =   4.9420085297251E+00
(PID.TID 0000.0001) %MON dynstat_eta_del2             =   1.9058059670637E-01
(PID.TID 0000.0001) %MON dynstat_uvel_max             =   1.5260155698318E-03
(PID.TID 0000.0001) %MON dynstat_uvel_min             =  -3.5467760743919E-03
(PID.TID 0000.0001) %MON dynstat_uvel_mean            =  -8.6726323127840E-10
(PID.TID 0000.0001) %MON dynstat_uvel_sd              =   1.0132991314554E-04
(PID.TID 0000.0001) %MON dynstat_uvel_del2            =   3.1019435426954E-07
(PID.TID 0000.0001) %MON dynstat_vvel_max             =   3.2501196684898E-03
(PID.TID 0000.0001) %MON dynstat_vvel_min             =  -1.6834667437351E-03
(PID.TID 0000.0001) %MON dynstat_vvel_mean            =  -6.0912038336068E-08
(PID.TID 0000.0001) %MON dynstat_vvel_sd              =   1.0332629351268E-04
(PID.TID 0000.0001) %MON dynstat_vvel_del2            =   3.5010986560437E-07
(PID.TID 0000.0001) %MON dynstat_wvel_max             =   1.8035797740941E-04
(PID.TID 0000.0001) %MON dynstat_wvel_min             =  -9.0714846436753E-05
(PID.TID 0000.0001) %MON dynstat_wvel_mean            =   1.6063096501674E-10
(PID.TID 0000.0001) %MON dynstat_wvel_sd              =   1.8222987137704E-05
(PID.TID 0000.0001) %MON dynstat_wvel_del2            =   8.9537086286754E-08
(PID.TID 0000.0001) %MON dynstat_theta_max            =   1.2000000000000E+00
(PID.TID 0000.0001) %MON dynstat_theta_min            =  -1.0000000000000E+00
(PID.TID 0000.0001) %MON dynstat_theta_mean           =   5.6544264140039E-01
(PID.TID 0000.0001) %MON dynstat_theta_sd             =   8.4905539402442E-01
(PID.TID 0000.0001) %MON dynstat_theta_del2           =   1.0651628265978E-06
(PID.TID 0000.0001) %MON dynstat_salt_max             =   3.4700000000000E+01
(PID.TID 0000.0001) %MON dynstat_salt_min             =   3.4000000000000E+01
(PID.TID 0000.0001) %MON dynstat_salt_mean            =   3.4498090483096E+01
(PID.TID 0000.0001) %MON dynstat_salt_sd              =   2.7015453818040E-01
(PID.TID 0000.0001) %MON dynstat_salt_del2            =   3.4677462178973E-07
(PID.TID 0000.0001) %MON advcfl_uvel_max              =   3.5467760743919E-04
(PID.TID 0000.0001) %MON advcfl_vvel_max              =   3.2501196684898E-04
(PID.TID 0000.0001) %MON advcfl_wvel_max              =   9.0178988704706E-04
(PID.TID 0000.0001) %MON advcfl_W_hf_max              =   9.0178988704706E-04
(PID.TID 0000.0001) %MON pe_b_mean                    =  -6.8284989389931E-01
(PID.TID 0000.0001) %MON ke_max                       =   5.0869536080666E-06
(PID.TID 0000.0001) %MON ke_mean                      =   1.0375355962473E-08
(PID.TID 0000.0001) %MON ke_vol                       =   4.6182885868602E+12
(PID.TID 0000.0001) // =======================================================
(PID.TID 0000.0001) // End MONITOR dynamic field statistics
(PID.TID 0000.0001) // =======================================================
(PID.TID 0000.0001) // =======================================================
(PID.TID 0000.0001) // Begin OBCS MONITOR field statistics
(PID.TID 0000.0001) // =======================================================
(PID.TID 0000.0001) %MON obc_N_vVel_max               =  -7.2951637363718E-08
(PID.TID 0000.0001) %MON obc_N_vVel_min               =  -7.2951637363719E-08
(PID.TID 0000.0001) %MON obc_N_vVel_mean              =  -7.2951637363718E-08
(PID.TID 0000.0001) %MON obc_N_vVel_sd                =   1.9720761300567E-14
(PID.TID 0000.0001) %MON obc_N_vVel_Int               =  -4.8148080660054E+00
(PID.TID 0000.0001) // =======================================================
(PID.TID 0000.0001) // End OBCS MONITOR field statistics
(PID.TID 0000.0001) // =======================================================
 cg2d: Sum(rhs),rhsMax =   3.01217468741314E+00  4.53052032444055E+02
(PID.TID 0000.0001)      cg2d_init_res =   1.88388635117636E-06
(PID.TID 0000.0001)      cg2d_iters(min,last) =      -1      65
(PID.TID 0000.0001)      cg2d_last_res =   9.66506646783733E-12
(PID.TID 0000.0001) // =======================================================
(PID.TID 0000.0001) // Begin MONITOR dynamic field statistics
(PID.TID 0000.0001) // =======================================================
(PID.TID 0000.0001) %MON time_tsnumber                =                   308
(PID.TID 0000.0001) %MON time_secondsf                =   3.0800000000000E+04
(PID.TID 0000.0001) %MON dynstat_eta_max              =   5.7963401047607E+00
(PID.TID 0000.0001) %MON dynstat_eta_min              =  -1.4177154047566E+01
(PID.TID 0000.0001) %MON dynstat_eta_mean             =  -2.5271701189057E+00
(PID.TID 0000.0001) %MON dynstat_eta_sd               =   4.9420079141726E+00
(PID.TID 0000.0001) %MON dynstat_eta_del2             =   1.9058059721201E-01
(PID.TID 0000.0001) %MON dynstat_uvel_max             =   1.5258182627012E-03
(PID.TID 0000.0001) %MON dynstat_uvel_min             =  -3.5433581956312E-03
(PID.TID 0000.0001) %MON dynstat_uvel_mean            =  -8.7299920788796E-10
(PID.TID 0000.0001) %MON dynstat_uvel_sd              =   1.0166162443878E-04
(PID.TID 0000.0001) %MON dynstat_uvel_del2            =   3.0962261737246E-07
(PID.TID 0000.0001) %MON dynstat_vvel_max             =   3.2471008189363E-03
(PID.TID 0000.0001) %MON dynstat_vvel_min             =  -1.6824490772596E-03
(PID.TID 0000.0001) %MON dynstat_vvel_mean            =  -5.6784431110877E-08
(PID.TID 0000.0001) %MON dynstat_vvel_sd              =   1.0339992386119E-04
(PID.TID 0000.0001) %MON dynstat_vvel_del2            =   3.4935104473207E-07
(PID.TID 0000.0001) %MON dynstat_wvel_max             =   1.7975009497340E-04
(PID.TID 0000.0001) %MON dynstat_wvel_min             =  -8.9185023567055E-05
(PID.TID 0000.0001) %MON dynstat_wvel_mean            =   1.5969819043045E-10
(PID.TID 0000.0001) %MON dynstat_wvel_sd              =   1.8178886466982E-05
(PID.TID 0000.0001) %MON dynstat_wvel_del2            =   8.9232096806005E-08
(PID.TID 0000.0001) %MON dynstat_theta_max            =   1.2000000000000E+00
(PID.TID 0000.0001) %MON dynstat_theta_min            =  -1.0000000000000E+00
(PID.TID 0000.0001) %MON dynstat_theta_mean           =   5.6544243700802E-01
(PID.TID 0000.0001) %MON dynstat_theta_sd             =   8.4905535050320E-01
(PID.TID 0000.0001) %MON dynstat_theta_del2           =   1.0622445394834E-06
(PID.TID 0000.0001) %MON dynstat_salt_max             =   3.4700000000000E+01
(PID.TID 0000.0001) %MON dynstat_salt_min             =   3.4000000000000E+01
(PID.TID 0000.0001) %MON dynstat_salt_mean            =   3.4498090402035E+01
(PID.TID 0000.0001) %MON dynstat_salt_sd              =   2.7015452580073E-01
(PID.TID 0000.0001) %MON dynstat_salt_del2            =   3.4602140303264E-07
(PID.TID 0000.0001) %MON advcfl_uvel_max              =   3.5433581956312E-04
(PID.TID 0000.0001) %MON advcfl_vvel_max              =   3.2471008189363E-04
(PID.TID 0000.0001) %MON advcfl_wvel_max              =   8.9875047486698E-04
(PID.TID 0000.0001) %MON advcfl_W_hf_max              =   8.9875047486698E-04
(PID.TID 0000.0001) %MON pe_b_mean                    =  -6.8284939764319E-01
(PID.TID 0000.0001) %MON ke_max                       =   5.0728667849541E-06
(PID.TID 0000.0001) %MON ke_mean                      =   1.0416000554855E-08
(PID.TID 0000.0001) %MON ke_vol                       =   4.6182885981878E+12
(PID.TID 0000.0001) // =======================================================
(PID.TID 0000.0001) // End MONITOR dynamic field statistics
(PID.TID 0000.0001) // =======================================================
(PID.TID 0000.0001) // =======================================================
(PID.TID 0000.0001) // Begin OBCS MONITOR field statistics
(PID.TID 0000.0001) // =======================================================
(PID.TID 0000.0001) %MON obc_N_vVel_max               =  -6.9043178123959E-08
(PID.TID 0000.0001) %MON obc_N_vVel_min               =  -6.9043178123960E-08
(PID.TID 0000.0001) %MON obc_N_vVel_mean              =  -6.9043178123960E-08
(PID.TID 0000.0001) %MON obc_N_vVel_sd                =  -2.1851447074622E-28
(PID.TID 0000.0001) %MON obc_N_vVel_Int               =  -4.5568497561814E+00
(PID.TID 0000.0001) // =======================================================
(PID.TID 0000.0001) // End OBCS MONITOR field statistics
(PID.TID 0000.0001) // =======================================================
 cg2d: Sum(rhs),rhsMax =   3.01217247088062E+00  4.53052025229220E+02
(PID.TID 0000.0001)      cg2d_init_res =   1.87844806822582E-06
(PID.TID 0000.0001)      cg2d_iters(min,last) =      -1      65
(PID.TID 0000.0001)      cg2d_last_res =   9.67129850561020E-12
(PID.TID 0000.0001) // =======================================================
(PID.TID 0000.0001) // Begin MONITOR dynamic field statistics
(PID.TID 0000.0001) // =======================================================
(PID.TID 0000.0001) %MON time_tsnumber                =                   309
(PID.TID 0000.0001) %MON time_secondsf                =   3.0900000000000E+04
(PID.TID 0000.0001) %MON dynstat_eta_max              =   5.7963427643237E+00
(PID.TID 0000.0001) %MON dynstat_eta_min              =  -1.4177148693109E+01
(PID.TID 0000.0001) %MON dynstat_eta_mean             =  -2.5271682190225E+00
(PID.TID 0000.0001) %MON dynstat_eta_sd               =   4.9420072998084E+00
(PID.TID 0000.0001) %MON dynstat_eta_del2             =   1.9058059773543E-01
(PID.TID 0000.0001) %MON dynstat_uvel_max             =   1.5255576856106E-03
(PID.TID 0000.0001) %MON dynstat_uvel_min             =  -3.5398785186243E-03
(PID.TID 0000.0001) %MON dynstat_uvel_mean            =  -8.7298447218238E-10
(PID.TID 0000.0001) %MON dynstat_uvel_sd              =   1.0199468817081E-04
(PID.TID 0000.0001) %MON dynstat_uvel_del2            =   3.0905716949789E-07
(PID.TID 0000.0001) %MON dynstat_vvel_max             =   3.2440324601142E-03
(PID.TID 0000.0001) %MON dynstat_vvel_min             =  -1.6813069470807E-03
(PID.TID 0000.0001) %MON dynstat_vvel_mean            =  -5.2877834345647E-08
(PID.TID 0000.0001) %MON dynstat_vvel_sd              =   1.0347502580634E-04
(PID.TID 0000.0001) %MON dynstat_vvel_del2            =   3.4863160225642E-07
(PID.TID 0000.0001) %MON dynstat_wvel_max             =   1.7913979111800E-04
(PID.TID 0000.0001) %MON dynstat_wvel_min             =  -8.6214598496536E-05
(PID.TID 0000.0001) %MON dynstat_wvel_mean            =   1.5806816005720E-10
(PID.TID 0000.0001) %MON dynstat_wvel_sd              =   1.8139399969789E-05
(PID.TID 0000.0001) %MON dynstat_wvel_del2            =   8.8991573590944E-08
(PID.TID 0000.0001) %MON dynstat_theta_max            =   1.2000000000000E+00
(PID.TID 0000.0001) %MON dynstat_theta_min            =  -1.0000000000000E+00
(PID.TID 0000.0001) %MON dynstat_theta_mean           =   5.6544223253869E-01
(PID.TID 0000.0001) %MON dynstat_theta_sd             =   8.4905530691920E-01
(PID.TID 0000.0001) %MON dynstat_theta_del2           =   1.0593211648623E-06
(PID.TID 0000.0001) %MON dynstat_salt_max             =   3.4700000000000E+01
(PID.TID 0000.0001) %MON dynstat_salt_min             =   3.4000000000000E+01
(PID.TID 0000.0001) %MON dynstat_salt_mean            =   3.4498090320942E+01
(PID.TID 0000.0001) %MON dynstat_salt_sd              =   2.7015451339649E-01
(PID.TID 0000.0001) %MON dynstat_salt_del2            =   3.4526696469642E-07
(PID.TID 0000.0001) %MON advcfl_uvel_max              =   3.5398785186243E-04
(PID.TID 0000.0001) %MON advcfl_vvel_max              =   3.2440324601142E-04
(PID.TID 0000.0001) %MON advcfl_wvel_max              =   8.9569895558999E-04
(PID.TID 0000.0001) %MON advcfl_W_hf_max              =   8.9569895558999E-04
(PID.TID 0000.0001) %MON pe_b_mean                    =  -6.8284890198829E-01
(PID.TID 0000.0001) %MON ke_max                       =   5.0587622406393E-06
(PID.TID 0000.0001) %MON ke_mean                      =   1.0457046176116E-08
(PID.TID 0000.0001) %MON ke_vol                       =   4.6182886094937E+12
(PID.TID 0000.0001) // =======================================================
(PID.TID 0000.0001) // End MONITOR dynamic field statistics
(PID.TID 0000.0001) // =======================================================
(PID.TID 0000.0001) // =======================================================
(PID.TID 0000.0001) // Begin OBCS MONITOR field statistics
(PID.TID 0000.0001) // =======================================================
(PID.TID 0000.0001) %MON obc_N_vVel_max               =  -6.5286411789597E-08
(PID.TID 0000.0001) %MON obc_N_vVel_min               =  -6.5286411789598E-08
(PID.TID 0000.0001) %MON obc_N_vVel_mean              =  -6.5286411789598E-08
(PID.TID 0000.0001) %MON obc_N_vVel_sd                =  -2.8951195221611E-28
(PID.TID 0000.0001) %MON obc_N_vVel_Int               =  -4.3089031781135E+00
(PID.TID 0000.0001) // =======================================================
(PID.TID 0000.0001) // End OBCS MONITOR field statistics
(PID.TID 0000.0001) // =======================================================
 cg2d: Sum(rhs),rhsMax =   3.01217025802561E+00  4.53052018029562E+02
(PID.TID 0000.0001)      cg2d_init_res =   1.87448687341123E-06
(PID.TID 0000.0001)      cg2d_iters(min,last) =      -1      65
(PID.TID 0000.0001)      cg2d_last_res =   9.72377169758360E-12
(PID.TID 0000.0001) // =======================================================
(PID.TID 0000.0001) // Begin MONITOR dynamic field statistics
(PID.TID 0000.0001) // =======================================================
(PID.TID 0000.0001) %MON time_tsnumber                =                   310
(PID.TID 0000.0001) %MON time_secondsf                =   3.1000000000000E+04
(PID.TID 0000.0001) %MON dynstat_eta_max              =   5.7963454151068E+00
(PID.TID 0000.0001) %MON dynstat_eta_min              =  -1.4177143348338E+01
(PID.TID 0000.0001) %MON dynstat_eta_mean             =  -2.5271663223095E+00
(PID.TID 0000.0001) %MON dynstat_eta_sd               =   4.9420066864313E+00
(PID.TID 0000.0001) %MON dynstat_eta_del2             =   1.9058059827547E-01
(PID.TID 0000.0001) %MON dynstat_uvel_max             =   1.5252339221545E-03
(PID.TID 0000.0001) %MON dynstat_uvel_min             =  -3.5363376214899E-03
(PID.TID 0000.0001) %MON dynstat_uvel_mean            =  -8.6721776202574E-10
(PID.TID 0000.0001) %MON dynstat_uvel_sd              =   1.0232907853126E-04
(PID.TID 0000.0001) %MON dynstat_uvel_del2            =   3.0849801037738E-07
(PID.TID 0000.0001) %MON dynstat_vvel_max             =   3.2409150533130E-03
(PID.TID 0000.0001) %MON dynstat_vvel_min             =  -1.6800393270309E-03
(PID.TID 0000.0001) %MON dynstat_vvel_mean            =  -4.9308991807467E-08
(PID.TID 0000.0001) %MON dynstat_vvel_sd              =   1.0355159258266E-04
(PID.TID 0000.0001) %MON dynstat_vvel_del2            =   3.4795051718234E-07
(PID.TID 0000.0001) %MON dynstat_wvel_max             =   1.7852711458156E-04
(PID.TID 0000.0001) %MON dynstat_wvel_min             =  -8.1839411843774E-05
(PID.TID 0000.0001) %MON dynstat_wvel_mean            =   1.5575059974737E-10
(PID.TID 0000.0001) %MON dynstat_wvel_sd              =   1.8104404999532E-05
(PID.TID 0000.0001) %MON dynstat_wvel_del2            =   8.8812340961238E-08
(PID.TID 0000.0001) %MON dynstat_theta_max            =   1.2000000000000E+00
(PID.TID 0000.0001) %MON dynstat_theta_min            =  -1.0000000000000E+00
(PID.TID 0000.0001) %MON dynstat_theta_mean           =   5.6544202799161E-01
(PID.TID 0000.0001) %MON dynstat_theta_sd             =   8.4905526327764E-01
(PID.TID 0000.0001) %MON dynstat_theta_del2           =   1.0563952485115E-06
(PID.TID 0000.0001) %MON dynstat_salt_max             =   3.4700000000000E+01
(PID.TID 0000.0001) %MON dynstat_salt_min             =   3.4000000000000E+01
(PID.TID 0000.0001) %MON dynstat_salt_mean            =   3.4498090239818E+01
(PID.TID 0000.0001) %MON dynstat_salt_sd              =   2.7015450096938E-01
(PID.TID 0000.0001) %MON dynstat_salt_del2            =   3.4451214244817E-07
(PID.TID 0000.0001) %MON advcfl_uvel_max              =   3.5363376214899E-04
(PID.TID 0000.0001) %MON advcfl_vvel_max              =   3.2409150533130E-04
(PID.TID 0000.0001) %MON advcfl_wvel_max              =   8.9263557290780E-04
(PID.TID 0000.0001) %MON advcfl_W_hf_max              =   8.9263557290780E-04
(PID.TID 0000.0001) %MON pe_b_mean                    =  -6.8284840685309E-01
(PID.TID 0000.0001) %MON ke_max                       =   5.0446428181156E-06
(PID.TID 0000.0001) %MON ke_mean                      =   1.0498491194675E-08
(PID.TID 0000.0001) %MON ke_vol                       =   4.6182886207790E+12
(PID.TID 0000.0001) // =======================================================
(PID.TID 0000.0001) // End MONITOR dynamic field statistics
(PID.TID 0000.0001) // =======================================================
(PID.TID 0000.0001) // =======================================================
(PID.TID 0000.0001) // Begin OBCS MONITOR field statistics
(PID.TID 0000.0001) // =======================================================
(PID.TID 0000.0001) %MON obc_N_vVel_max               =  -6.1788986367348E-08
(PID.TID 0000.0001) %MON obc_N_vVel_min               =  -6.1788986367350E-08
(PID.TID 0000.0001) %MON obc_N_vVel_mean              =  -6.1788986367350E-08
(PID.TID 0000.0001) %MON obc_N_vVel_sd                =  -1.6487192919119E-28
(PID.TID 0000.0001) %MON obc_N_vVel_Int               =  -4.0780731002451E+00
(PID.TID 0000.0001) // =======================================================
(PID.TID 0000.0001) // End OBCS MONITOR field statistics
(PID.TID 0000.0001) // =======================================================
 cg2d: Sum(rhs),rhsMax =   3.01216804863731E+00  4.53052010801404E+02
(PID.TID 0000.0001)      cg2d_init_res =   1.87188528032553E-06
(PID.TID 0000.0001)      cg2d_iters(min,last) =      -1      65
(PID.TID 0000.0001)      cg2d_last_res =   9.82518290076660E-12
(PID.TID 0000.0001) // =======================================================
(PID.TID 0000.0001) // Begin MONITOR dynamic field statistics
(PID.TID 0000.0001) // =======================================================
(PID.TID 0000.0001) %MON time_tsnumber                =                   311
(PID.TID 0000.0001) %MON time_secondsf                =   3.1100000000000E+04
(PID.TID 0000.0001) %MON dynstat_eta_max              =   5.7963480579856E+00
(PID.TID 0000.0001) %MON dynstat_eta_min              =  -1.4177138012182E+01
(PID.TID 0000.0001) %MON dynstat_eta_mean             =  -2.5271644283461E+00
(PID.TID 0000.0001) %MON dynstat_eta_sd               =   4.9420060738047E+00
(PID.TID 0000.0001) %MON dynstat_eta_del2             =   1.9058059883139E-01
(PID.TID 0000.0001) %MON dynstat_uvel_max             =   1.5248470605131E-03
(PID.TID 0000.0001) %MON dynstat_uvel_min             =  -3.5327360834660E-03
(PID.TID 0000.0001) %MON dynstat_uvel_mean            =  -8.5589567623589E-10
(PID.TID 0000.0001) %MON dynstat_uvel_sd              =   1.0266476918611E-04
(PID.TID 0000.0001) %MON dynstat_uvel_del2            =   3.0794513341409E-07
(PID.TID 0000.0001) %MON dynstat_vvel_max             =   3.2377490610846E-03
(PID.TID 0000.0001) %MON dynstat_vvel_min             =  -1.6786453147724E-03
(PID.TID 0000.0001) %MON dynstat_vvel_mean            =  -4.6187780627567E-08
(PID.TID 0000.0001) %MON dynstat_vvel_sd              =   1.0362941107262E-04
(PID.TID 0000.0001) %MON dynstat_vvel_del2            =   3.4730254506066E-07
(PID.TID 0000.0001) %MON dynstat_wvel_max             =   1.7791211401864E-04
(PID.TID 0000.0001) %MON dynstat_wvel_min             =  -7.8617967052713E-05
(PID.TID 0000.0001) %MON dynstat_wvel_mean            =   1.5277965181186E-10
(PID.TID 0000.0001) %MON dynstat_wvel_sd              =   1.8073225634006E-05
(PID.TID 0000.0001) %MON dynstat_wvel_del2            =   8.8683553129490E-08
(PID.TID 0000.0001) %MON dynstat_theta_max            =   1.2000000000000E+00
(PID.TID 0000.0001) %MON dynstat_theta_min            =  -1.0000000000000E+00
(PID.TID 0000.0001) %MON dynstat_theta_mean           =   5.6544182336462E-01
(PID.TID 0000.0001) %MON dynstat_theta_sd             =   8.4905521959539E-01
(PID.TID 0000.0001) %MON dynstat_theta_del2           =   1.0534732972168E-06
(PID.TID 0000.0001) %MON dynstat_salt_max             =   3.4700000000000E+01
(PID.TID 0000.0001) %MON dynstat_salt_min             =   3.4000000000000E+01
(PID.TID 0000.0001) %MON dynstat_salt_mean            =   3.4498090158662E+01
(PID.TID 0000.0001) %MON dynstat_salt_sd              =   2.7015448852460E-01
(PID.TID 0000.0001) %MON dynstat_salt_del2            =   3.4375898951443E-07
(PID.TID 0000.0001) %MON advcfl_uvel_max              =   3.5327360834660E-04
(PID.TID 0000.0001) %MON advcfl_vvel_max              =   3.2377490610846E-04
(PID.TID 0000.0001) %MON advcfl_wvel_max              =   8.8956057009320E-04
(PID.TID 0000.0001) %MON advcfl_W_hf_max              =   8.8956057009320E-04
(PID.TID 0000.0001) %MON pe_b_mean                    =  -6.8284791212976E-01
(PID.TID 0000.0001) %MON ke_max                       =   5.0305113288715E-06
(PID.TID 0000.0001) %MON ke_mean                      =   1.0540312517013E-08
(PID.TID 0000.0001) %MON ke_vol                       =   4.6182886320455E+12
(PID.TID 0000.0001) // =======================================================
(PID.TID 0000.0001) // End MONITOR dynamic field statistics
(PID.TID 0000.0001) // =======================================================
(PID.TID 0000.0001) // =======================================================
(PID.TID 0000.0001) // Begin OBCS MONITOR field statistics
(PID.TID 0000.0001) // =======================================================
(PID.TID 0000.0001) %MON obc_N_vVel_max               =  -5.8654087774834E-08
(PID.TID 0000.0001) %MON obc_N_vVel_min               =  -5.8654087774834E-08
(PID.TID 0000.0001) %MON obc_N_vVel_mean              =  -5.8654087774834E-08
(PID.TID 0000.0001) %MON obc_N_vVel_sd                =  -1.3962838022412E-28
(PID.TID 0000.0001) %MON obc_N_vVel_Int               =  -3.8711697931391E+00
(PID.TID 0000.0001) // =======================================================
(PID.TID 0000.0001) // End OBCS MONITOR field statistics
(PID.TID 0000.0001) // =======================================================
 cg2d: Sum(rhs),rhsMax =   3.01216584237207E+00  4.53052003502897E+02
(PID.TID 0000.0001)      cg2d_init_res =   1.87038028928527E-06
(PID.TID 0000.0001)      cg2d_iters(min,last) =      -1      65
(PID.TID 0000.0001)      cg2d_last_res =   9.96010180926706E-12
(PID.TID 0000.0001) // =======================================================
(PID.TID 0000.0001) // Begin MONITOR dynamic field statistics
(PID.TID 0000.0001) // =======================================================
(PID.TID 0000.0001) %MON time_tsnumber                =                   312
(PID.TID 0000.0001) %MON time_secondsf                =   3.1200000000000E+04
(PID.TID 0000.0001) %MON dynstat_eta_max              =   5.7963506939997E+00
(PID.TID 0000.0001) %MON dynstat_eta_min              =  -1.4177132683349E+01
(PID.TID 0000.0001) %MON dynstat_eta_mean             =  -2.5271625366105E+00
(PID.TID 0000.0001) %MON dynstat_eta_sd               =   4.9420054616794E+00
(PID.TID 0000.0001) %MON dynstat_eta_del2             =   1.9058059940295E-01
(PID.TID 0000.0001) %MON dynstat_uvel_max             =   1.5243971940118E-03
(PID.TID 0000.0001) %MON dynstat_uvel_min             =  -3.5290744852654E-03
(PID.TID 0000.0001) %MON dynstat_uvel_mean            =  -8.3942692523931E-10
(PID.TID 0000.0001) %MON dynstat_uvel_sd              =   1.0300173338003E-04
(PID.TID 0000.0001) %MON dynstat_uvel_del2            =   3.0739852586671E-07
(PID.TID 0000.0001) %MON dynstat_vvel_max             =   3.2345349488017E-03
(PID.TID 0000.0001) %MON dynstat_vvel_min             =  -1.6771241299196E-03
(PID.TID 0000.0001) %MON dynstat_vvel_mean            =  -4.3613113337156E-08
(PID.TID 0000.0001) %MON dynstat_vvel_sd              =   1.0370809874668E-04
(PID.TID 0000.0001) %MON dynstat_vvel_del2            =   3.4667906785733E-07
(PID.TID 0000.0001) %MON dynstat_wvel_max             =   1.7729483767276E-04
(PID.TID 0000.0001) %MON dynstat_wvel_min             =  -8.2161677683953E-05
(PID.TID 0000.0001) %MON dynstat_wvel_mean            =   1.4921456524710E-10
(PID.TID 0000.0001) %MON dynstat_wvel_sd              =   1.8044735990617E-05
(PID.TID 0000.0001) %MON dynstat_wvel_del2            =   8.8588337392321E-08
(PID.TID 0000.0001) %MON dynstat_theta_max            =   1.2000000000000E+00
(PID.TID 0000.0001) %MON dynstat_theta_min            =  -1.0000000000000E+00
(PID.TID 0000.0001) %MON dynstat_theta_mean           =   5.6544161865605E-01
(PID.TID 0000.0001) %MON dynstat_theta_sd             =   8.4905517588454E-01
(PID.TID 0000.0001) %MON dynstat_theta_del2           =   1.0505642713798E-06
(PID.TID 0000.0001) %MON dynstat_salt_max             =   3.4700000000000E+01
(PID.TID 0000.0001) %MON dynstat_salt_min             =   3.4000000000000E+01
(PID.TID 0000.0001) %MON dynstat_salt_mean            =   3.4498090077474E+01
(PID.TID 0000.0001) %MON dynstat_salt_sd              =   2.7015447606593E-01
(PID.TID 0000.0001) %MON dynstat_salt_del2            =   3.4301033025543E-07
(PID.TID 0000.0001) %MON advcfl_uvel_max              =   3.5290744852654E-04
(PID.TID 0000.0001) %MON advcfl_vvel_max              =   3.2345349488017E-04
(PID.TID 0000.0001) %MON advcfl_wvel_max              =   8.8647418836381E-04
(PID.TID 0000.0001) %MON advcfl_W_hf_max              =   8.8647418836381E-04
(PID.TID 0000.0001) %MON pe_b_mean                    =  -6.8284741769240E-01
(PID.TID 0000.0001) %MON ke_max                       =   5.0163705547175E-06
(PID.TID 0000.0001) %MON ke_mean                      =   1.0582469346145E-08
(PID.TID 0000.0001) %MON ke_vol                       =   4.6182886432956E+12
(PID.TID 0000.0001) // =======================================================
(PID.TID 0000.0001) // End MONITOR dynamic field statistics
(PID.TID 0000.0001) // =======================================================
(PID.TID 0000.0001) // =======================================================
(PID.TID 0000.0001) // Begin OBCS MONITOR field statistics
(PID.TID 0000.0001) // =======================================================
(PID.TID 0000.0001) %MON obc_N_vVel_max               =  -5.5976796440260E-08
(PID.TID 0000.0001) %MON obc_N_vVel_min               =  -5.5976796440260E-08
(PID.TID 0000.0001) %MON obc_N_vVel_mean              =  -5.5976796440260E-08
(PID.TID 0000.0001) %MON obc_N_vVel_sd                =   1.0068198762485E-14
(PID.TID 0000.0001) %MON obc_N_vVel_Int               =  -3.6944685650572E+00
(PID.TID 0000.0001) // =======================================================
(PID.TID 0000.0001) // End OBCS MONITOR field statistics
(PID.TID 0000.0001) // =======================================================
 cg2d: Sum(rhs),rhsMax =   3.01216363874820E+00  4.53051996094811E+02
(PID.TID 0000.0001)      cg2d_init_res =   1.86956817141678E-06
(PID.TID 0000.0001)      cg2d_iters(min,last) =      -1      66
(PID.TID 0000.0001)      cg2d_last_res =   7.62156372769797E-12
(PID.TID 0000.0001) // =======================================================
(PID.TID 0000.0001) // Begin MONITOR dynamic field statistics
(PID.TID 0000.0001) // =======================================================
(PID.TID 0000.0001) %MON time_tsnumber                =                   313
(PID.TID 0000.0001) %MON time_secondsf                =   3.1300000000000E+04
(PID.TID 0000.0001) %MON dynstat_eta_max              =   5.7963533241199E+00
(PID.TID 0000.0001) %MON dynstat_eta_min              =  -1.4177127360493E+01
(PID.TID 0000.0001) %MON dynstat_eta_mean             =  -2.5271606464798E+00
(PID.TID 0000.0001) %MON dynstat_eta_sd               =   4.9420048497942E+00
(PID.TID 0000.0001) %MON dynstat_eta_del2             =   1.9058059999138E-01
(PID.TID 0000.0001) %MON dynstat_uvel_max             =   1.5266846673612E-03
(PID.TID 0000.0001) %MON dynstat_uvel_min             =  -3.5253534107604E-03
(PID.TID 0000.0001) %MON dynstat_uvel_mean            =  -8.1840521220182E-10
(PID.TID 0000.0001) %MON dynstat_uvel_sd              =   1.0333994404265E-04
(PID.TID 0000.0001) %MON dynstat_uvel_del2            =   3.0685816941380E-07
(PID.TID 0000.0001) %MON dynstat_vvel_max             =   3.2312731780628E-03
(PID.TID 0000.0001) %MON dynstat_vvel_min             =  -1.6754751163859E-03
(PID.TID 0000.0001) %MON dynstat_vvel_mean            =  -4.1669303793532E-08
(PID.TID 0000.0001) %MON dynstat_vvel_sd              =   1.0378716146424E-04
(PID.TID 0000.0001) %MON dynstat_vvel_del2            =   3.4606936288066E-07
(PID.TID 0000.0001) %MON dynstat_wvel_max             =   1.7667533978518E-04
(PID.TID 0000.0001) %MON dynstat_wvel_min             =  -8.6139947945300E-05
(PID.TID 0000.0001) %MON dynstat_wvel_mean            =   1.4513208483342E-10
(PID.TID 0000.0001) %MON dynstat_wvel_sd              =   1.8017520347148E-05
(PID.TID 0000.0001) %MON dynstat_wvel_del2            =   8.8506198982890E-08
(PID.TID 0000.0001) %MON dynstat_theta_max            =   1.2000000000000E+00
(PID.TID 0000.0001) %MON dynstat_theta_min            =  -1.0000000000000E+00
(PID.TID 0000.0001) %MON dynstat_theta_mean           =   5.6544141386324E-01
(PID.TID 0000.0001) %MON dynstat_theta_sd             =   8.4905513216035E-01
(PID.TID 0000.0001) %MON dynstat_theta_del2           =   1.0476789340276E-06
(PID.TID 0000.0001) %MON dynstat_salt_max             =   3.4700000000000E+01
(PID.TID 0000.0001) %MON dynstat_salt_min             =   3.4000000000000E+01
(PID.TID 0000.0001) %MON dynstat_salt_mean            =   3.4498089996251E+01
(PID.TID 0000.0001) %MON dynstat_salt_sd              =   2.7015446359832E-01
(PID.TID 0000.0001) %MON dynstat_salt_del2            =   3.4226953802187E-07
(PID.TID 0000.0001) %MON advcfl_uvel_max              =   3.5253534107604E-04
(PID.TID 0000.0001) %MON advcfl_vvel_max              =   3.2312731780628E-04
(PID.TID 0000.0001) %MON advcfl_wvel_max              =   8.8337669892589E-04
(PID.TID 0000.0001) %MON advcfl_W_hf_max              =   8.8337669892589E-04
(PID.TID 0000.0001) %MON pe_b_mean                    =  -6.8284692339609E-01
(PID.TID 0000.0001) %MON ke_max                       =   5.0022232412167E-06
(PID.TID 0000.0001) %MON ke_mean                      =   1.0624909120886E-08
(PID.TID 0000.0001) %MON ke_vol                       =   4.6182886545325E+12
(PID.TID 0000.0001) // =======================================================
(PID.TID 0000.0001) // End MONITOR dynamic field statistics
(PID.TID 0000.0001) // =======================================================
(PID.TID 0000.0001) // =======================================================
(PID.TID 0000.0001) // Begin OBCS MONITOR field statistics
(PID.TID 0000.0001) // =======================================================
(PID.TID 0000.0001) %MON obc_N_vVel_max               =  -5.3840570906241E-08
(PID.TID 0000.0001) %MON obc_N_vVel_min               =  -5.3840570906242E-08
(PID.TID 0000.0001) %MON obc_N_vVel_mean              =  -5.3840570906241E-08
(PID.TID 0000.0001) %MON obc_N_vVel_sd                =   8.6568923983145E-15
(PID.TID 0000.0001) %MON obc_N_vVel_Int               =  -3.5534776798119E+00
(PID.TID 0000.0001) // =======================================================
(PID.TID 0000.0001) // End OBCS MONITOR field statistics
(PID.TID 0000.0001) // =======================================================
 cg2d: Sum(rhs),rhsMax =   3.01216143715572E+00  4.53051988540999E+02
(PID.TID 0000.0001)      cg2d_init_res =   1.86900057983675E-06
(PID.TID 0000.0001)      cg2d_iters(min,last) =      -1      66
(PID.TID 0000.0001)      cg2d_last_res =   7.70955109283536E-12
(PID.TID 0000.0001) // =======================================================
(PID.TID 0000.0001) // Begin MONITOR dynamic field statistics
(PID.TID 0000.0001) // =======================================================
(PID.TID 0000.0001) %MON time_tsnumber                =                   314
(PID.TID 0000.0001) %MON time_secondsf                =   3.1400000000000E+04
(PID.TID 0000.0001) %MON dynstat_eta_max              =   5.7963559499407E+00
(PID.TID 0000.0001) %MON dynstat_eta_min              =  -1.4177122041567E+01
(PID.TID 0000.0001) %MON dynstat_eta_mean             =  -2.5271587572406E+00
(PID.TID 0000.0001) %MON dynstat_eta_sd               =   4.9420042378737E+00
(PID.TID 0000.0001) %MON dynstat_eta_del2             =   1.9058060059478E-01
(PID.TID 0000.0001) %MON dynstat_uvel_max             =   1.5306073597010E-03
(PID.TID 0000.0001) %MON dynstat_uvel_min             =  -3.5215734418501E-03
(PID.TID 0000.0001) %MON dynstat_uvel_mean            =  -7.9366059758915E-10
(PID.TID 0000.0001) %MON dynstat_uvel_sd              =   1.0367937389530E-04
(PID.TID 0000.0001) %MON dynstat_uvel_del2            =   3.0632404076960E-07
(PID.TID 0000.0001) %MON dynstat_vvel_max             =   3.2279642506907E-03
(PID.TID 0000.0001) %MON dynstat_vvel_min             =  -1.6736977244118E-03
(PID.TID 0000.0001) %MON dynstat_vvel_mean            =  -4.0422631295790E-08
(PID.TID 0000.0001) %MON dynstat_vvel_sd              =   1.0386606354467E-04
(PID.TID 0000.0001) %MON dynstat_vvel_del2            =   3.4546210743694E-07
(PID.TID 0000.0001) %MON dynstat_wvel_max             =   1.7605364422936E-04
(PID.TID 0000.0001) %MON dynstat_wvel_min             =  -8.9469970195977E-05
(PID.TID 0000.0001) %MON dynstat_wvel_mean            =   1.4069019610804E-10
(PID.TID 0000.0001) %MON dynstat_wvel_sd              =   1.7990065687801E-05
(PID.TID 0000.0001) %MON dynstat_wvel_del2            =   8.8415812040662E-08
(PID.TID 0000.0001) %MON dynstat_theta_max            =   1.2000000000000E+00
(PID.TID 0000.0001) %MON dynstat_theta_min            =  -1.0000000000000E+00
(PID.TID 0000.0001) %MON dynstat_theta_mean           =   5.6544120898234E-01
(PID.TID 0000.0001) %MON dynstat_theta_sd             =   8.4905508842173E-01
(PID.TID 0000.0001) %MON dynstat_theta_del2           =   1.0448285672032E-06
(PID.TID 0000.0001) %MON dynstat_salt_max             =   3.4700000000000E+01
(PID.TID 0000.0001) %MON dynstat_salt_min             =   3.4000000000000E+01
(PID.TID 0000.0001) %MON dynstat_salt_mean            =   3.4498089914993E+01
(PID.TID 0000.0001) %MON dynstat_salt_sd              =   2.7015445112096E-01
(PID.TID 0000.0001) %MON dynstat_salt_del2            =   3.4154009857073E-07
(PID.TID 0000.0001) %MON advcfl_uvel_max              =   3.5215734418501E-04
(PID.TID 0000.0001) %MON advcfl_vvel_max              =   3.2279642506907E-04
(PID.TID 0000.0001) %MON advcfl_wvel_max              =   8.8026822114680E-04
(PID.TID 0000.0001) %MON advcfl_W_hf_max              =   8.8026822114680E-04
(PID.TID 0000.0001) %MON pe_b_mean                    =  -6.8284642908048E-01
(PID.TID 0000.0001) %MON ke_max                       =   4.9880721497871E-06
(PID.TID 0000.0001) %MON ke_mean                      =   1.0667574757820E-08
(PID.TID 0000.0001) %MON ke_vol                       =   4.6182886657599E+12
(PID.TID 0000.0001) // =======================================================
(PID.TID 0000.0001) // End MONITOR dynamic field statistics
(PID.TID 0000.0001) // =======================================================
(PID.TID 0000.0001) // =======================================================
(PID.TID 0000.0001) // Begin OBCS MONITOR field statistics
(PID.TID 0000.0001) // =======================================================
(PID.TID 0000.0001) %MON obc_N_vVel_max               =  -5.2317547884884E-08
(PID.TID 0000.0001) %MON obc_N_vVel_min               =  -5.2317547884884E-08
(PID.TID 0000.0001) %MON obc_N_vVel_mean              =  -5.2317547884884E-08
(PID.TID 0000.0001) %MON obc_N_vVel_sd                =   1.1631407706955E-14
(PID.TID 0000.0001) %MON obc_N_vVel_Int               =  -3.4529581604023E+00
(PID.TID 0000.0001) // =======================================================
(PID.TID 0000.0001) // End OBCS MONITOR field statistics
(PID.TID 0000.0001) // =======================================================
 cg2d: Sum(rhs),rhsMax =   3.01215923690476E+00  4.53051980809883E+02
(PID.TID 0000.0001)      cg2d_init_res =   1.86817254245877E-06
(PID.TID 0000.0001)      cg2d_iters(min,last) =      -1      66
(PID.TID 0000.0001)      cg2d_last_res =   7.81814554720690E-12
(PID.TID 0000.0001) // =======================================================
(PID.TID 0000.0001) // Begin MONITOR dynamic field statistics
(PID.TID 0000.0001) // =======================================================
(PID.TID 0000.0001) %MON time_tsnumber                =                   315
(PID.TID 0000.0001) %MON time_secondsf                =   3.1500000000000E+04
(PID.TID 0000.0001) %MON dynstat_eta_max              =   5.7963585728079E+00
(PID.TID 0000.0001) %MON dynstat_eta_min              =  -1.4177116725171E+01
(PID.TID 0000.0001) %MON dynstat_eta_mean             =  -2.5271568681379E+00
(PID.TID 0000.0001) %MON dynstat_eta_sd               =   4.9420036256411E+00
(PID.TID 0000.0001) %MON dynstat_eta_del2             =   1.9058060121456E-01
(PID.TID 0000.0001) %MON dynstat_uvel_max             =   1.5345080426226E-03
(PID.TID 0000.0001) %MON dynstat_uvel_min             =  -3.5177351635001E-03
(PID.TID 0000.0001) %MON dynstat_uvel_mean            =  -7.6610285862326E-10
(PID.TID 0000.0001) %MON dynstat_uvel_sd              =   1.0401999558361E-04
(PID.TID 0000.0001) %MON dynstat_uvel_del2            =   3.0579611224508E-07
(PID.TID 0000.0001) %MON dynstat_vvel_max             =   3.2246086260814E-03
(PID.TID 0000.0001) %MON dynstat_vvel_min             =  -1.6717915319013E-03
(PID.TID 0000.0001) %MON dynstat_vvel_mean            =  -3.9917119292382E-08
(PID.TID 0000.0001) %MON dynstat_vvel_sd              =   1.0394430114535E-04
(PID.TID 0000.0001) %MON dynstat_vvel_del2            =   3.4484691943723E-07
(PID.TID 0000.0001) %MON dynstat_wvel_max             =   1.7542982133058E-04
(PID.TID 0000.0001) %MON dynstat_wvel_min             =  -9.2517440132412E-05
(PID.TID 0000.0001) %MON dynstat_wvel_mean            =   1.3588204164042E-10
(PID.TID 0000.0001) %MON dynstat_wvel_sd              =   1.7960962947036E-05
(PID.TID 0000.0001) %MON dynstat_wvel_del2            =   8.8297813051880E-08
(PID.TID 0000.0001) %MON dynstat_theta_max            =   1.2000000000000E+00
(PID.TID 0000.0001) %MON dynstat_theta_min            =  -1.0000000000000E+00
(PID.TID 0000.0001) %MON dynstat_theta_mean           =   5.6544100400982E-01
(PID.TID 0000.0001) %MON dynstat_theta_sd             =   8.4905504464447E-01
(PID.TID 0000.0001) %MON dynstat_theta_del2           =   1.0420224691452E-06
(PID.TID 0000.0001) %MON dynstat_salt_max             =   3.4700000000000E+01
(PID.TID 0000.0001) %MON dynstat_salt_min             =   3.4000000000000E+01
(PID.TID 0000.0001) %MON dynstat_salt_mean            =   3.4498089833699E+01
(PID.TID 0000.0001) %MON dynstat_salt_sd              =   2.7015443862613E-01
(PID.TID 0000.0001) %MON dynstat_salt_del2            =   3.4082492955209E-07
(PID.TID 0000.0001) %MON advcfl_uvel_max              =   3.5177351635001E-04
(PID.TID 0000.0001) %MON advcfl_vvel_max              =   3.2246086260814E-04
(PID.TID 0000.0001) %MON advcfl_wvel_max              =   8.7714910665291E-04
(PID.TID 0000.0001) %MON advcfl_W_hf_max              =   8.7714910665291E-04
(PID.TID 0000.0001) %MON pe_b_mean                    =  -6.8284593457696E-01
(PID.TID 0000.0001) %MON ke_max                       =   4.9739199642492E-06
(PID.TID 0000.0001) %MON ke_mean                      =   1.0710412274445E-08
(PID.TID 0000.0001) %MON ke_vol                       =   4.6182886769820E+12
(PID.TID 0000.0001) // =======================================================
(PID.TID 0000.0001) // End MONITOR dynamic field statistics
(PID.TID 0000.0001) // =======================================================
(PID.TID 0000.0001) // =======================================================
(PID.TID 0000.0001) // Begin OBCS MONITOR field statistics
(PID.TID 0000.0001) // =======================================================
(PID.TID 0000.0001) %MON obc_N_vVel_max               =  -5.1447898358281E-08
(PID.TID 0000.0001) %MON obc_N_vVel_min               =  -5.1447898358281E-08
(PID.TID 0000.0001) %MON obc_N_vVel_mean              =  -5.1447898358281E-08
(PID.TID 0000.0001) %MON obc_N_vVel_sd                =   7.5364438016821E-15
(PID.TID 0000.0001) %MON obc_N_vVel_Int               =  -3.3955612916466E+00
(PID.TID 0000.0001) // =======================================================
(PID.TID 0000.0001) // End OBCS MONITOR field statistics
(PID.TID 0000.0001) // =======================================================
 cg2d: Sum(rhs),rhsMax =   3.01215703722115E+00  4.53051972873594E+02
(PID.TID 0000.0001)      cg2d_init_res =   1.86672606163788E-06
(PID.TID 0000.0001)      cg2d_iters(min,last) =      -1      66
(PID.TID 0000.0001)      cg2d_last_res =   7.93490930936093E-12
(PID.TID 0000.0001) // =======================================================
(PID.TID 0000.0001) // Begin MONITOR dynamic field statistics
(PID.TID 0000.0001) // =======================================================
(PID.TID 0000.0001) %MON time_tsnumber                =                   316
(PID.TID 0000.0001) %MON time_secondsf                =   3.1600000000000E+04
(PID.TID 0000.0001) %MON dynstat_eta_max              =   5.7963611941096E+00
(PID.TID 0000.0001) %MON dynstat_eta_min              =  -1.4177111409453E+01
(PID.TID 0000.0001) %MON dynstat_eta_mean             =  -2.5271549783669E+00
(PID.TID 0000.0001) %MON dynstat_eta_sd               =   4.9420030128127E+00
(PID.TID 0000.0001) %MON dynstat_eta_del2             =   1.9058060184997E-01
(PID.TID 0000.0001) %MON dynstat_uvel_max             =   1.5383870527579E-03
(PID.TID 0000.0001) %MON dynstat_uvel_min             =  -3.5138391644400E-03
(PID.TID 0000.0001) %MON dynstat_uvel_mean            =  -7.3679769499555E-10
(PID.TID 0000.0001) %MON dynstat_uvel_sd              =   1.0436178182922E-04
(PID.TID 0000.0001) %MON dynstat_uvel_del2            =   3.0527435301535E-07
(PID.TID 0000.0001) %MON dynstat_vvel_max             =   3.2212068059136E-03
(PID.TID 0000.0001) %MON dynstat_vvel_min             =  -1.6697562268746E-03
(PID.TID 0000.0001) %MON dynstat_vvel_mean            =  -4.0176234826452E-08
(PID.TID 0000.0001) %MON dynstat_vvel_sd              =   1.0402146833217E-04
(PID.TID 0000.0001) %MON dynstat_vvel_del2            =   3.4421572053092E-07
(PID.TID 0000.0001) %MON dynstat_wvel_max             =   1.7483568902382E-04
(PID.TID 0000.0001) %MON dynstat_wvel_min             =  -9.3692774098422E-05
(PID.TID 0000.0001) %MON dynstat_wvel_mean            =   1.3097133422751E-10
(PID.TID 0000.0001) %MON dynstat_wvel_sd              =   1.7929085522093E-05
(PID.TID 0000.0001) %MON dynstat_wvel_del2            =   8.8137210025223E-08
(PID.TID 0000.0001) %MON dynstat_theta_max            =   1.2000000000000E+00
(PID.TID 0000.0001) %MON dynstat_theta_min            =  -1.0000000000000E+00
(PID.TID 0000.0001) %MON dynstat_theta_mean           =   5.6544079894212E-01
(PID.TID 0000.0001) %MON dynstat_theta_sd             =   8.4905500080706E-01
(PID.TID 0000.0001) %MON dynstat_theta_del2           =   1.0392666292331E-06
(PID.TID 0000.0001) %MON dynstat_salt_max             =   3.4700000000000E+01
(PID.TID 0000.0001) %MON dynstat_salt_min             =   3.4000000000000E+01
(PID.TID 0000.0001) %MON dynstat_salt_mean            =   3.4498089752366E+01
(PID.TID 0000.0001) %MON dynstat_salt_sd              =   2.7015442610681E-01
(PID.TID 0000.0001) %MON dynstat_salt_del2            =   3.4012588978672E-07
(PID.TID 0000.0001) %MON advcfl_uvel_max              =   3.5138391644400E-04
(PID.TID 0000.0001) %MON advcfl_vvel_max              =   3.2212068059136E-04
(PID.TID 0000.0001) %MON advcfl_wvel_max              =   8.7417844511908E-04
(PID.TID 0000.0001) %MON advcfl_W_hf_max              =   8.7417844511908E-04
(PID.TID 0000.0001) %MON pe_b_mean                    =  -6.8284543971233E-01
(PID.TID 0000.0001) %MON ke_max                       =   4.9597693858786E-06
(PID.TID 0000.0001) %MON ke_mean                      =   1.0753377691778E-08
(PID.TID 0000.0001) %MON ke_vol                       =   4.6182886882033E+12
(PID.TID 0000.0001) // =======================================================
(PID.TID 0000.0001) // End MONITOR dynamic field statistics
(PID.TID 0000.0001) // =======================================================
(PID.TID 0000.0001) // =======================================================
(PID.TID 0000.0001) // Begin OBCS MONITOR field statistics
(PID.TID 0000.0001) // =======================================================
(PID.TID 0000.0001) %MON obc_N_vVel_max               =  -5.1276252569679E-08
(PID.TID 0000.0001) %MON obc_N_vVel_min               =  -5.1276252569680E-08
(PID.TID 0000.0001) %MON obc_N_vVel_mean              =  -5.1276252569679E-08
(PID.TID 0000.0001) %MON obc_N_vVel_sd                =   7.0216669371534E-15
(PID.TID 0000.0001) %MON obc_N_vVel_Int               =  -3.3842326695988E+00
(PID.TID 0000.0001) // =======================================================
(PID.TID 0000.0001) // End OBCS MONITOR field statistics
(PID.TID 0000.0001) // =======================================================
 cg2d: Sum(rhs),rhsMax =   3.01215483730120E+00  4.53051964709261E+02
(PID.TID 0000.0001)      cg2d_init_res =   1.86434959869445E-06
(PID.TID 0000.0001)      cg2d_iters(min,last) =      -1      66
(PID.TID 0000.0001)      cg2d_last_res =   8.05246049414911E-12
(PID.TID 0000.0001) // =======================================================
(PID.TID 0000.0001) // Begin MONITOR dynamic field statistics
(PID.TID 0000.0001) // =======================================================
(PID.TID 0000.0001) %MON time_tsnumber                =                   317
(PID.TID 0000.0001) %MON time_secondsf                =   3.1700000000000E+04
(PID.TID 0000.0001) %MON dynstat_eta_max              =   5.7963638152927E+00
(PID.TID 0000.0001) %MON dynstat_eta_min              =  -1.4177106092580E+01
(PID.TID 0000.0001) %MON dynstat_eta_mean             =  -2.5271530871256E+00
(PID.TID 0000.0001) %MON dynstat_eta_sd               =   4.9420023991260E+00
(PID.TID 0000.0001) %MON dynstat_eta_del2             =   1.9058060250079E-01
(PID.TID 0000.0001) %MON dynstat_uvel_max             =   1.5422447175375E-03
(PID.TID 0000.0001) %MON dynstat_uvel_min             =  -3.5098860340408E-03
(PID.TID 0000.0001) %MON dynstat_uvel_mean            =  -7.0686948362193E-10
(PID.TID 0000.0001) %MON dynstat_uvel_sd              =   1.0470470552431E-04
(PID.TID 0000.0001) %MON dynstat_uvel_del2            =   3.0475872992640E-07
(PID.TID 0000.0001) %MON dynstat_vvel_max             =   3.2177592951168E-03
(PID.TID 0000.0001) %MON dynstat_vvel_min             =  -1.6675916087596E-03
(PID.TID 0000.0001) %MON dynstat_vvel_mean            =  -4.1198494898973E-08
(PID.TID 0000.0001) %MON dynstat_vvel_sd              =   1.0409730783749E-04
(PID.TID 0000.0001) %MON dynstat_vvel_del2            =   3.4356375161649E-07
(PID.TID 0000.0001) %MON dynstat_wvel_max             =   1.7426246807997E-04
(PID.TID 0000.0001) %MON dynstat_wvel_min             =  -9.2985233381459E-05
(PID.TID 0000.0001) %MON dynstat_wvel_mean            =   1.2606864907961E-10
(PID.TID 0000.0001) %MON dynstat_wvel_sd              =   1.7893727451075E-05
(PID.TID 0000.0001) %MON dynstat_wvel_del2            =   8.7925147637660E-08
(PID.TID 0000.0001) %MON dynstat_theta_max            =   1.2000000000000E+00
(PID.TID 0000.0001) %MON dynstat_theta_min            =  -1.0000000000000E+00
(PID.TID 0000.0001) %MON dynstat_theta_mean           =   5.6544059377669E-01
(PID.TID 0000.0001) %MON dynstat_theta_sd             =   8.4905495690339E-01
(PID.TID 0000.0001) %MON dynstat_theta_del2           =   1.0365640937720E-06
(PID.TID 0000.0001) %MON dynstat_salt_max             =   3.4700000000000E+01
(PID.TID 0000.0001) %MON dynstat_salt_min             =   3.4000000000000E+01
(PID.TID 0000.0001) %MON dynstat_salt_mean            =   3.4498089670994E+01
(PID.TID 0000.0001) %MON dynstat_salt_sd              =   2.7015441356102E-01
(PID.TID 0000.0001) %MON dynstat_salt_del2            =   3.3944390690475E-07
(PID.TID 0000.0001) %MON advcfl_uvel_max              =   3.5098860340408E-04
(PID.TID 0000.0001) %MON advcfl_vvel_max              =   3.2177592951168E-04
(PID.TID 0000.0001) %MON advcfl_wvel_max              =   8.7131234039983E-04
(PID.TID 0000.0001) %MON advcfl_W_hf_max              =   8.7131234039983E-04
(PID.TID 0000.0001) %MON pe_b_mean                    =  -6.8284494431931E-01
(PID.TID 0000.0001) %MON ke_max                       =   4.9456230900789E-06
(PID.TID 0000.0001) %MON ke_mean                      =   1.0796442369167E-08
(PID.TID 0000.0001) %MON ke_vol                       =   4.6182886994285E+12
(PID.TID 0000.0001) // =======================================================
(PID.TID 0000.0001) // End MONITOR dynamic field statistics
(PID.TID 0000.0001) // =======================================================
(PID.TID 0000.0001) // =======================================================
(PID.TID 0000.0001) // Begin OBCS MONITOR field statistics
(PID.TID 0000.0001) // =======================================================
(PID.TID 0000.0001) %MON obc_N_vVel_max               =  -5.1808298192368E-08
(PID.TID 0000.0001) %MON obc_N_vVel_min               =  -5.1808298192368E-08
(PID.TID 0000.0001) %MON obc_N_vVel_mean              =  -5.1808298192368E-08
(PID.TID 0000.0001) %MON obc_N_vVel_sd                =   8.5422265091101E-15
(PID.TID 0000.0001) %MON obc_N_vVel_Int               =  -3.4193476806963E+00
(PID.TID 0000.0001) // =======================================================
(PID.TID 0000.0001) // End OBCS MONITOR field statistics
(PID.TID 0000.0001) // =======================================================
 cg2d: Sum(rhs),rhsMax =   3.01215263631896E+00  4.53051956299079E+02
(PID.TID 0000.0001)      cg2d_init_res =   1.86086900064864E-06
(PID.TID 0000.0001)      cg2d_iters(min,last) =      -1      66
(PID.TID 0000.0001)      cg2d_last_res =   8.15733461099998E-12
(PID.TID 0000.0001) // =======================================================
(PID.TID 0000.0001) // Begin MONITOR dynamic field statistics
(PID.TID 0000.0001) // =======================================================
(PID.TID 0000.0001) %MON time_tsnumber                =                   318
(PID.TID 0000.0001) %MON time_secondsf                =   3.1800000000000E+04
(PID.TID 0000.0001) %MON dynstat_eta_max              =   5.7963664377908E+00
(PID.TID 0000.0001) %MON dynstat_eta_min              =  -1.4177100772827E+01
(PID.TID 0000.0001) %MON dynstat_eta_mean             =  -2.5271511936217E+00
(PID.TID 0000.0001) %MON dynstat_eta_sd               =   4.9420017843553E+00
(PID.TID 0000.0001) %MON dynstat_eta_del2             =   1.9058060316788E-01
(PID.TID 0000.0001) %MON dynstat_uvel_max             =   1.5460813627044E-03
(PID.TID 0000.0001) %MON dynstat_uvel_min             =  -3.5058763629909E-03
(PID.TID 0000.0001) %MON dynstat_uvel_mean            =  -6.7746762009975E-10
(PID.TID 0000.0001) %MON dynstat_uvel_sd              =   1.0504873983259E-04
(PID.TID 0000.0001) %MON dynstat_uvel_del2            =   3.0424920869665E-07
(PID.TID 0000.0001) %MON dynstat_vvel_max             =   3.2142666094392E-03
(PID.TID 0000.0001) %MON dynstat_vvel_min             =  -1.6652975885822E-03
(PID.TID 0000.0001) %MON dynstat_vvel_mean            =  -4.2958027757207E-08
(PID.TID 0000.0001) %MON dynstat_vvel_sd              =   1.0417173976079E-04
(PID.TID 0000.0001) %MON dynstat_vvel_del2            =   3.4289011615326E-07
(PID.TID 0000.0001) %MON dynstat_wvel_max             =   1.7368687020477E-04
(PID.TID 0000.0001) %MON dynstat_wvel_min             =  -9.0422957655661E-05
(PID.TID 0000.0001) %MON dynstat_wvel_mean            =   1.2132351743486E-10
(PID.TID 0000.0001) %MON dynstat_wvel_sd              =   1.7854681781054E-05
(PID.TID 0000.0001) %MON dynstat_wvel_del2            =   8.7659835548586E-08
(PID.TID 0000.0001) %MON dynstat_theta_max            =   1.2000000000000E+00
(PID.TID 0000.0001) %MON dynstat_theta_min            =  -1.0000000000000E+00
(PID.TID 0000.0001) %MON dynstat_theta_mean           =   5.6544038851057E-01
(PID.TID 0000.0001) %MON dynstat_theta_sd             =   8.4905491289605E-01
(PID.TID 0000.0001) %MON dynstat_theta_del2           =   1.0339141487219E-06
(PID.TID 0000.0001) %MON dynstat_salt_max             =   3.4700000000000E+01
(PID.TID 0000.0001) %MON dynstat_salt_min             =   3.4000000000000E+01
(PID.TID 0000.0001) %MON dynstat_salt_mean            =   3.4498089589582E+01
(PID.TID 0000.0001) %MON dynstat_salt_sd              =   2.7015440097660E-01
(PID.TID 0000.0001) %MON dynstat_salt_del2            =   3.3877873978335E-07
(PID.TID 0000.0001) %MON advcfl_uvel_max              =   3.5058763629909E-04
(PID.TID 0000.0001) %MON advcfl_vvel_max              =   3.2142666094392E-04
(PID.TID 0000.0001) %MON advcfl_wvel_max              =   8.6843435102386E-04
(PID.TID 0000.0001) %MON advcfl_W_hf_max              =   8.6843435102386E-04
(PID.TID 0000.0001) %MON pe_b_mean                    =  -6.8284444823658E-01
(PID.TID 0000.0001) %MON ke_max                       =   4.9314837347592E-06
(PID.TID 0000.0001) %MON ke_mean                      =   1.0839596064742E-08
(PID.TID 0000.0001) %MON ke_vol                       =   4.6182887106625E+12
(PID.TID 0000.0001) // =======================================================
(PID.TID 0000.0001) // End MONITOR dynamic field statistics
(PID.TID 0000.0001) // =======================================================
(PID.TID 0000.0001) // =======================================================
(PID.TID 0000.0001) // Begin OBCS MONITOR field statistics
(PID.TID 0000.0001) // =======================================================
(PID.TID 0000.0001) %MON obc_N_vVel_max               =  -5.3032217884599E-08
(PID.TID 0000.0001) %MON obc_N_vVel_min               =  -5.3032217884600E-08
(PID.TID 0000.0001) %MON obc_N_vVel_mean              =  -5.3032217884599E-08
(PID.TID 0000.0001) %MON obc_N_vVel_sd                =  -3.7865323450609E-29
(PID.TID 0000.0001) %MON obc_N_vVel_Int               =  -3.5001263803835E+00
(PID.TID 0000.0001) // =======================================================
(PID.TID 0000.0001) // End OBCS MONITOR field statistics
(PID.TID 0000.0001) // =======================================================
 cg2d: Sum(rhs),rhsMax =   3.01215043345758E+00  4.53051947630320E+02
(PID.TID 0000.0001)      cg2d_init_res =   1.85623449001986E-06
(PID.TID 0000.0001)      cg2d_iters(min,last) =      -1      66
(PID.TID 0000.0001)      cg2d_last_res =   8.21994146502199E-12
(PID.TID 0000.0001) // =======================================================
(PID.TID 0000.0001) // Begin MONITOR dynamic field statistics
(PID.TID 0000.0001) // =======================================================
(PID.TID 0000.0001) %MON time_tsnumber                =                   319
(PID.TID 0000.0001) %MON time_secondsf                =   3.1900000000000E+04
(PID.TID 0000.0001) %MON dynstat_eta_max              =   5.7963690629205E+00
(PID.TID 0000.0001) %MON dynstat_eta_min              =  -1.4177095448618E+01
(PID.TID 0000.0001) %MON dynstat_eta_mean             =  -2.5271492970990E+00
(PID.TID 0000.0001) %MON dynstat_eta_sd               =   4.9420011683003E+00
(PID.TID 0000.0001) %MON dynstat_eta_del2             =   1.9058060385168E-01
(PID.TID 0000.0001) %MON dynstat_uvel_max             =   1.5498973112233E-03
(PID.TID 0000.0001) %MON dynstat_uvel_min             =  -3.5018107436628E-03
(PID.TID 0000.0001) %MON dynstat_uvel_mean            =  -6.4972346166156E-10
(PID.TID 0000.0001) %MON dynstat_uvel_sd              =   1.0539385826845E-04
(PID.TID 0000.0001) %MON dynstat_uvel_del2            =   3.0374575523608E-07
(PID.TID 0000.0001) %MON dynstat_vvel_max             =   3.2107292750547E-03
(PID.TID 0000.0001) %MON dynstat_vvel_min             =  -1.6628741882005E-03
(PID.TID 0000.0001) %MON dynstat_vvel_mean            =  -4.5405098695996E-08
(PID.TID 0000.0001) %MON dynstat_vvel_sd              =   1.0424486637115E-04
(PID.TID 0000.0001) %MON dynstat_vvel_del2            =   3.4219780174939E-07
(PID.TID 0000.0001) %MON dynstat_wvel_max             =   1.7310894127039E-04
(PID.TID 0000.0001) %MON dynstat_wvel_min             =  -8.6778020703433E-05
(PID.TID 0000.0001) %MON dynstat_wvel_mean            =   1.1688505227064E-10
(PID.TID 0000.0001) %MON dynstat_wvel_sd              =   1.7812253435062E-05
(PID.TID 0000.0001) %MON dynstat_wvel_del2            =   8.7346578093089E-08
(PID.TID 0000.0001) %MON dynstat_theta_max            =   1.2000000000000E+00
(PID.TID 0000.0001) %MON dynstat_theta_min            =  -1.0000000000000E+00
(PID.TID 0000.0001) %MON dynstat_theta_mean           =   5.6544018314070E-01
(PID.TID 0000.0001) %MON dynstat_theta_sd             =   8.4905486879540E-01
(PID.TID 0000.0001) %MON dynstat_theta_del2           =   1.0313125718458E-06
(PID.TID 0000.0001) %MON dynstat_salt_max             =   3.4700000000000E+01
(PID.TID 0000.0001) %MON dynstat_salt_min             =   3.4000000000000E+01
(PID.TID 0000.0001) %MON dynstat_salt_mean            =   3.4498089508128E+01
(PID.TID 0000.0001) %MON dynstat_salt_sd              =   2.7015438835677E-01
(PID.TID 0000.0001) %MON dynstat_salt_del2            =   3.3812906647063E-07
(PID.TID 0000.0001) %MON advcfl_uvel_max              =   3.5018107436628E-04
(PID.TID 0000.0001) %MON advcfl_vvel_max              =   3.2107292750547E-04
(PID.TID 0000.0001) %MON advcfl_wvel_max              =   8.6554470635196E-04
(PID.TID 0000.0001) %MON advcfl_W_hf_max              =   8.6554470635196E-04
(PID.TID 0000.0001) %MON pe_b_mean                    =  -6.8284395131422E-01
(PID.TID 0000.0001) %MON ke_max                       =   4.9173539599838E-06
(PID.TID 0000.0001) %MON ke_mean                      =   1.0882847512300E-08
(PID.TID 0000.0001) %MON ke_vol                       =   4.6182887219099E+12
(PID.TID 0000.0001) // =======================================================
(PID.TID 0000.0001) // End MONITOR dynamic field statistics
(PID.TID 0000.0001) // =======================================================
(PID.TID 0000.0001) // =======================================================
(PID.TID 0000.0001) // Begin OBCS MONITOR field statistics
(PID.TID 0000.0001) // =======================================================
(PID.TID 0000.0001) %MON obc_N_vVel_max               =  -5.4914535053286E-08
(PID.TID 0000.0001) %MON obc_N_vVel_min               =  -5.4914535053287E-08
(PID.TID 0000.0001) %MON obc_N_vVel_mean              =  -5.4914535053286E-08
(PID.TID 0000.0001) %MON obc_N_vVel_sd                =  -2.3665827156630E-29
(PID.TID 0000.0001) %MON obc_N_vVel_Int               =  -3.6243593135169E+00
(PID.TID 0000.0001) // =======================================================
(PID.TID 0000.0001) // End OBCS MONITOR field statistics
(PID.TID 0000.0001) // =======================================================
 cg2d: Sum(rhs),rhsMax =   3.01214822793886E+00  4.53051938695457E+02
(PID.TID 0000.0001)      cg2d_init_res =   1.85055821734398E-06
(PID.TID 0000.0001)      cg2d_iters(min,last) =      -1      66
(PID.TID 0000.0001)      cg2d_last_res =   8.22494021875378E-12
(PID.TID 0000.0001) // =======================================================
(PID.TID 0000.0001) // Begin MONITOR dynamic field statistics
(PID.TID 0000.0001) // =======================================================
(PID.TID 0000.0001) %MON time_tsnumber                =                   320
(PID.TID 0000.0001) %MON time_secondsf                =   3.2000000000000E+04
(PID.TID 0000.0001) %MON dynstat_eta_max              =   5.7963716918817E+00
(PID.TID 0000.0001) %MON dynstat_eta_min              =  -1.4177090118519E+01
(PID.TID 0000.0001) %MON dynstat_eta_mean             =  -2.5271473968626E+00
(PID.TID 0000.0001) %MON dynstat_eta_sd               =   4.9420005507922E+00
(PID.TID 0000.0001) %MON dynstat_eta_del2             =   1.9058060455248E-01
(PID.TID 0000.0001) %MON dynstat_uvel_max             =   1.5536928835296E-03
(PID.TID 0000.0001) %MON dynstat_uvel_min             =  -3.4976897701828E-03
(PID.TID 0000.0001) %MON dynstat_uvel_mean            =  -6.2471425455479E-10
(PID.TID 0000.0001) %MON dynstat_uvel_sd              =   1.0574003482362E-04
(PID.TID 0000.0001) %MON dynstat_uvel_del2            =   3.0324833672550E-07
(PID.TID 0000.0001) %MON dynstat_vvel_max             =   3.2071478275029E-03
(PID.TID 0000.0001) %MON dynstat_vvel_min             =  -1.6603215389175E-03
(PID.TID 0000.0001) %MON dynstat_vvel_mean            =  -4.8467475043136E-08
(PID.TID 0000.0001) %MON dynstat_vvel_sd              =   1.0431695178209E-04
(PID.TID 0000.0001) %MON dynstat_vvel_del2            =   3.4149318276479E-07
(PID.TID 0000.0001) %MON dynstat_wvel_max             =   1.7252872656114E-04
(PID.TID 0000.0001) %MON dynstat_wvel_min             =  -8.5469017535443E-05
(PID.TID 0000.0001) %MON dynstat_wvel_mean            =   1.1289810837648E-10
(PID.TID 0000.0001) %MON dynstat_wvel_sd              =   1.7767205191958E-05
(PID.TID 0000.0001) %MON dynstat_wvel_del2            =   8.6996919493087E-08
(PID.TID 0000.0001) %MON dynstat_theta_max            =   1.2000000000000E+00
(PID.TID 0000.0001) %MON dynstat_theta_min            =  -1.0000000000000E+00
(PID.TID 0000.0001) %MON dynstat_theta_mean           =   5.6543997766414E-01
(PID.TID 0000.0001) %MON dynstat_theta_sd             =   8.4905482463265E-01
(PID.TID 0000.0001) %MON dynstat_theta_del2           =   1.0287519827660E-06
(PID.TID 0000.0001) %MON dynstat_salt_max             =   3.4700000000000E+01
(PID.TID 0000.0001) %MON dynstat_salt_min             =   3.4000000000000E+01
(PID.TID 0000.0001) %MON dynstat_salt_mean            =   3.4498089426632E+01
(PID.TID 0000.0001) %MON dynstat_salt_sd              =   2.7015437571134E-01
(PID.TID 0000.0001) %MON dynstat_salt_del2            =   3.3749258635509E-07
(PID.TID 0000.0001) %MON advcfl_uvel_max              =   3.4976897701828E-04
(PID.TID 0000.0001) %MON advcfl_vvel_max              =   3.2071478275029E-04
(PID.TID 0000.0001) %MON advcfl_wvel_max              =   8.6264363280568E-04
(PID.TID 0000.0001) %MON advcfl_W_hf_max              =   8.6264363280568E-04
(PID.TID 0000.0001) %MON pe_b_mean                    =  -6.8284345341918E-01
(PID.TID 0000.0001) %MON ke_max                       =   4.9032363864474E-06
(PID.TID 0000.0001) %MON ke_mean                      =   1.0926222380626E-08
(PID.TID 0000.0001) %MON ke_vol                       =   4.6182887331752E+12
(PID.TID 0000.0001) // =======================================================
(PID.TID 0000.0001) // End MONITOR dynamic field statistics
(PID.TID 0000.0001) // =======================================================
(PID.TID 0000.0001) // =======================================================
(PID.TID 0000.0001) // Begin OBCS MONITOR field statistics
(PID.TID 0000.0001) // =======================================================
(PID.TID 0000.0001) %MON obc_N_vVel_max               =  -5.7400954471390E-08
(PID.TID 0000.0001) %MON obc_N_vVel_min               =  -5.7400954471392E-08
(PID.TID 0000.0001) %MON obc_N_vVel_mean              =  -5.7400954471390E-08
(PID.TID 0000.0001) %MON obc_N_vVel_sd                =   1.4822205035151E-14
(PID.TID 0000.0001) %MON obc_N_vVel_Int               =  -3.7884629951117E+00
(PID.TID 0000.0001) // =======================================================
(PID.TID 0000.0001) // End OBCS MONITOR field statistics
(PID.TID 0000.0001) // =======================================================
 cg2d: Sum(rhs),rhsMax =   3.01214601905906E+00  4.53051929491756E+02
(PID.TID 0000.0001)      cg2d_init_res =   1.84410013292974E-06
(PID.TID 0000.0001)      cg2d_iters(min,last) =      -1      66
(PID.TID 0000.0001)      cg2d_last_res =   8.20493310085199E-12
(PID.TID 0000.0001) // =======================================================
(PID.TID 0000.0001) // Begin MONITOR dynamic field statistics
(PID.TID 0000.0001) // =======================================================
(PID.TID 0000.0001) %MON time_tsnumber                =                   321
(PID.TID 0000.0001) %MON time_secondsf                =   3.2100000000000E+04
(PID.TID 0000.0001) %MON dynstat_eta_max              =   5.7963743257505E+00
(PID.TID 0000.0001) %MON dynstat_eta_min              =  -1.4177084781298E+01
(PID.TID 0000.0001) %MON dynstat_eta_mean             =  -2.5271454923067E+00
(PID.TID 0000.0001) %MON dynstat_eta_sd               =   4.9419999316991E+00
(PID.TID 0000.0001) %MON dynstat_eta_del2             =   1.9058060527067E-01
(PID.TID 0000.0001) %MON dynstat_uvel_max             =   1.5574683977526E-03
(PID.TID 0000.0001) %MON dynstat_uvel_min             =  -3.4935140383230E-03
(PID.TID 0000.0001) %MON dynstat_uvel_mean            =  -6.0346051671866E-10
(PID.TID 0000.0001) %MON dynstat_uvel_sd              =   1.0608724402162E-04
(PID.TID 0000.0001) %MON dynstat_uvel_del2            =   3.0275692260229E-07
(PID.TID 0000.0001) %MON dynstat_vvel_max             =   3.2035228106393E-03
(PID.TID 0000.0001) %MON dynstat_vvel_min             =  -1.6576398814241E-03
(PID.TID 0000.0001) %MON dynstat_vvel_mean            =  -5.2052555523085E-08
(PID.TID 0000.0001) %MON dynstat_vvel_sd              =   1.0438838055238E-04
(PID.TID 0000.0001) %MON dynstat_vvel_del2            =   3.4078507962504E-07
(PID.TID 0000.0001) %MON dynstat_wvel_max             =   1.7194627123688E-04
(PID.TID 0000.0001) %MON dynstat_wvel_min             =  -8.2802666194617E-05
(PID.TID 0000.0001) %MON dynstat_wvel_mean            =   1.0949753193595E-10
(PID.TID 0000.0001) %MON dynstat_wvel_sd              =   1.7720645345972E-05
(PID.TID 0000.0001) %MON dynstat_wvel_del2            =   8.6627016954516E-08
(PID.TID 0000.0001) %MON dynstat_theta_max            =   1.2000000000000E+00
(PID.TID 0000.0001) %MON dynstat_theta_min            =  -1.0000000000000E+00
(PID.TID 0000.0001) %MON dynstat_theta_mean           =   5.6543977207880E-01
(PID.TID 0000.0001) %MON dynstat_theta_sd             =   8.4905478040769E-01
(PID.TID 0000.0001) %MON dynstat_theta_del2           =   1.0262235981201E-06
(PID.TID 0000.0001) %MON dynstat_salt_max             =   3.4700000000000E+01
(PID.TID 0000.0001) %MON dynstat_salt_min             =   3.4000000000000E+01
(PID.TID 0000.0001) %MON dynstat_salt_mean            =   3.4498089345092E+01
(PID.TID 0000.0001) %MON dynstat_salt_sd              =   2.7015436304010E-01
(PID.TID 0000.0001) %MON dynstat_salt_del2            =   3.3686657115225E-07
(PID.TID 0000.0001) %MON advcfl_uvel_max              =   3.4935140383230E-04
(PID.TID 0000.0001) %MON advcfl_vvel_max              =   3.2035228106393E-04
(PID.TID 0000.0001) %MON advcfl_wvel_max              =   8.5973135618440E-04
(PID.TID 0000.0001) %MON advcfl_W_hf_max              =   8.5973135618440E-04
(PID.TID 0000.0001) %MON pe_b_mean                    =  -6.8284295444101E-01
(PID.TID 0000.0001) %MON ke_max                       =   4.8992716536540E-06
(PID.TID 0000.0001) %MON ke_mean                      =   1.0969759013640E-08
(PID.TID 0000.0001) %MON ke_vol                       =   4.6182887444626E+12
(PID.TID 0000.0001) // =======================================================
(PID.TID 0000.0001) // End MONITOR dynamic field statistics
(PID.TID 0000.0001) // =======================================================
(PID.TID 0000.0001) // =======================================================
(PID.TID 0000.0001) // Begin OBCS MONITOR field statistics
(PID.TID 0000.0001) // =======================================================
(PID.TID 0000.0001) %MON obc_N_vVel_max               =  -6.0417580317929E-08
(PID.TID 0000.0001) %MON obc_N_vVel_min               =  -6.0417580317931E-08
(PID.TID 0000.0001) %MON obc_N_vVel_mean              =  -6.0417580317929E-08
(PID.TID 0000.0001) %MON obc_N_vVel_sd                =   1.1128843700929E-14
(PID.TID 0000.0001) %MON obc_N_vVel_Int               =  -3.9875603009833E+00
(PID.TID 0000.0001) // =======================================================
(PID.TID 0000.0001) // End OBCS MONITOR field statistics
(PID.TID 0000.0001) // =======================================================
 cg2d: Sum(rhs),rhsMax =   3.01214380621104E+00  4.53051920021517E+02
(PID.TID 0000.0001)      cg2d_init_res =   1.83720838999214E-06
(PID.TID 0000.0001)      cg2d_iters(min,last) =      -1      66
(PID.TID 0000.0001)      cg2d_last_res =   8.20212333082249E-12
(PID.TID 0000.0001) // =======================================================
(PID.TID 0000.0001) // Begin MONITOR dynamic field statistics
(PID.TID 0000.0001) // =======================================================
(PID.TID 0000.0001) %MON time_tsnumber                =                   322
(PID.TID 0000.0001) %MON time_secondsf                =   3.2200000000000E+04
(PID.TID 0000.0001) %MON dynstat_eta_max              =   5.7963769654525E+00
(PID.TID 0000.0001) %MON dynstat_eta_min              =  -1.4177079435953E+01
(PID.TID 0000.0001) %MON dynstat_eta_mean             =  -2.5271435829349E+00
(PID.TID 0000.0001) %MON dynstat_eta_sd               =   4.9419993109468E+00
(PID.TID 0000.0001) %MON dynstat_eta_del2             =   1.9058060600679E-01
(PID.TID 0000.0001) %MON dynstat_uvel_max             =   1.5612241693770E-03
(PID.TID 0000.0001) %MON dynstat_uvel_min             =  -3.4892841455665E-03
(PID.TID 0000.0001) %MON dynstat_uvel_mean            =  -5.8689013220322E-10
(PID.TID 0000.0001) %MON dynstat_uvel_sd              =   1.0643546100232E-04
(PID.TID 0000.0001) %MON dynstat_uvel_del2            =   3.0227148589571E-07
(PID.TID 0000.0001) %MON dynstat_vvel_max             =   3.1998547752741E-03
(PID.TID 0000.0001) %MON dynstat_vvel_min             =  -1.6548295653696E-03
(PID.TID 0000.0001) %MON dynstat_vvel_mean            =  -5.6050197005815E-08
(PID.TID 0000.0001) %MON dynstat_vvel_sd              =   1.0445960121309E-04
(PID.TID 0000.0001) %MON dynstat_vvel_del2            =   3.4008351112229E-07
(PID.TID 0000.0001) %MON dynstat_wvel_max             =   1.7136162010932E-04
(PID.TID 0000.0001) %MON dynstat_wvel_min             =  -7.8809679457504E-05
(PID.TID 0000.0001) %MON dynstat_wvel_mean            =   1.0679918425640E-10
(PID.TID 0000.0001) %MON dynstat_wvel_sd              =   1.7673872870301E-05
(PID.TID 0000.0001) %MON dynstat_wvel_del2            =   8.6255447242012E-08
(PID.TID 0000.0001) %MON dynstat_theta_max            =   1.2000000000000E+00
(PID.TID 0000.0001) %MON dynstat_theta_min            =  -1.0000000000000E+00
(PID.TID 0000.0001) %MON dynstat_theta_mean           =   5.6543956638340E-01
(PID.TID 0000.0001) %MON dynstat_theta_sd             =   8.4905473609952E-01
(PID.TID 0000.0001) %MON dynstat_theta_del2           =   1.0237174210063E-06
(PID.TID 0000.0001) %MON dynstat_salt_max             =   3.4700000000000E+01
(PID.TID 0000.0001) %MON dynstat_salt_min             =   3.4000000000000E+01
(PID.TID 0000.0001) %MON dynstat_salt_mean            =   3.4498089263509E+01
(PID.TID 0000.0001) %MON dynstat_salt_sd              =   2.7015435033633E-01
(PID.TID 0000.0001) %MON dynstat_salt_del2            =   3.3624791117968E-07
(PID.TID 0000.0001) %MON advcfl_uvel_max              =   3.4892841455665E-04
(PID.TID 0000.0001) %MON advcfl_vvel_max              =   3.1998547752741E-04
(PID.TID 0000.0001) %MON advcfl_wvel_max              =   8.5680810054658E-04
(PID.TID 0000.0001) %MON advcfl_W_hf_max              =   8.5680810054658E-04
(PID.TID 0000.0001) %MON pe_b_mean                    =  -6.8284245429622E-01
(PID.TID 0000.0001) %MON ke_max                       =   4.9020547342730E-06
(PID.TID 0000.0001) %MON ke_mean                      =   1.1013502580877E-08
(PID.TID 0000.0001) %MON ke_vol                       =   4.6182887557757E+12
(PID.TID 0000.0001) // =======================================================
(PID.TID 0000.0001) // End MONITOR dynamic field statistics
(PID.TID 0000.0001) // =======================================================
(PID.TID 0000.0001) // =======================================================
(PID.TID 0000.0001) // Begin OBCS MONITOR field statistics
(PID.TID 0000.0001) // =======================================================
(PID.TID 0000.0001) %MON obc_N_vVel_max               =  -6.3872795707290E-08
(PID.TID 0000.0001) %MON obc_N_vVel_min               =  -6.3872795707292E-08
(PID.TID 0000.0001) %MON obc_N_vVel_mean              =  -6.3872795707290E-08
(PID.TID 0000.0001) %MON obc_N_vVel_sd                =   1.5409319662838E-14
(PID.TID 0000.0001) %MON obc_N_vVel_Int               =  -4.2156045166812E+00
(PID.TID 0000.0001) // =======================================================
(PID.TID 0000.0001) // End OBCS MONITOR field statistics
(PID.TID 0000.0001) // =======================================================
 cg2d: Sum(rhs),rhsMax =   3.01214158888428E+00  4.53051910291292E+02
(PID.TID 0000.0001)      cg2d_init_res =   1.83025060145275E-06
(PID.TID 0000.0001)      cg2d_iters(min,last) =      -1      66
(PID.TID 0000.0001)      cg2d_last_res =   8.24102557126487E-12
(PID.TID 0000.0001) // =======================================================
(PID.TID 0000.0001) // Begin MONITOR dynamic field statistics
(PID.TID 0000.0001) // =======================================================
(PID.TID 0000.0001) %MON time_tsnumber                =                   323
(PID.TID 0000.0001) %MON time_secondsf                =   3.2300000000000E+04
(PID.TID 0000.0001) %MON dynstat_eta_max              =   5.7963796116804E+00
(PID.TID 0000.0001) %MON dynstat_eta_min              =  -1.4177074081737E+01
(PID.TID 0000.0001) %MON dynstat_eta_mean             =  -2.5271416683553E+00
(PID.TID 0000.0001) %MON dynstat_eta_sd               =   4.9419986884959E+00
(PID.TID 0000.0001) %MON dynstat_eta_del2             =   1.9058060676150E-01
(PID.TID 0000.0001) %MON dynstat_uvel_max             =   1.5649605114909E-03
(PID.TID 0000.0001) %MON dynstat_uvel_min             =  -3.4850006906131E-03
(PID.TID 0000.0001) %MON dynstat_uvel_mean            =  -5.7579036770945E-10
(PID.TID 0000.0001) %MON dynstat_uvel_sd              =   1.0678466157386E-04
(PID.TID 0000.0001) %MON dynstat_uvel_del2            =   3.0179200419357E-07
(PID.TID 0000.0001) %MON dynstat_vvel_max             =   3.1961442782062E-03
(PID.TID 0000.0001) %MON dynstat_vvel_min             =  -1.6518910495140E-03
(PID.TID 0000.0001) %MON dynstat_vvel_mean            =  -6.0336265634295E-08
(PID.TID 0000.0001) %MON dynstat_vvel_sd              =   1.0453106280398E-04
(PID.TID 0000.0001) %MON dynstat_vvel_del2            =   3.3939830914590E-07
(PID.TID 0000.0001) %MON dynstat_wvel_max             =   1.7077481775635E-04
(PID.TID 0000.0001) %MON dynstat_wvel_min             =  -7.9204692935502E-05
(PID.TID 0000.0001) %MON dynstat_wvel_mean            =   1.0489714311087E-10
(PID.TID 0000.0001) %MON dynstat_wvel_sd              =   1.7628200630067E-05
(PID.TID 0000.0001) %MON dynstat_wvel_del2            =   8.5900716776911E-08
(PID.TID 0000.0001) %MON dynstat_theta_max            =   1.2000000000000E+00
(PID.TID 0000.0001) %MON dynstat_theta_min            =  -1.0000000000000E+00
(PID.TID 0000.0001) %MON dynstat_theta_mean           =   5.6543936057522E-01
(PID.TID 0000.0001) %MON dynstat_theta_sd             =   8.4905469170076E-01
(PID.TID 0000.0001) %MON dynstat_theta_del2           =   1.0212239784925E-06
(PID.TID 0000.0001) %MON dynstat_salt_max             =   3.4700000000000E+01
(PID.TID 0000.0001) %MON dynstat_salt_min             =   3.4000000000000E+01
(PID.TID 0000.0001) %MON dynstat_salt_mean            =   3.4498089181880E+01
(PID.TID 0000.0001) %MON dynstat_salt_sd              =   2.7015433759751E-01
(PID.TID 0000.0001) %MON dynstat_salt_del2            =   3.3563367035952E-07
(PID.TID 0000.0001) %MON advcfl_uvel_max              =   3.4850006906131E-04
(PID.TID 0000.0001) %MON advcfl_vvel_max              =   3.1961442782062E-04
(PID.TID 0000.0001) %MON advcfl_wvel_max              =   8.5387408878175E-04
(PID.TID 0000.0001) %MON advcfl_W_hf_max              =   8.5387408878175E-04
(PID.TID 0000.0001) %MON pe_b_mean                    =  -6.8284195292335E-01
(PID.TID 0000.0001) %MON ke_max                       =   4.9047411005608E-06
(PID.TID 0000.0001) %MON ke_mean                      =   1.1057498470524E-08
(PID.TID 0000.0001) %MON ke_vol                       =   4.6182887671174E+12
(PID.TID 0000.0001) // =======================================================
(PID.TID 0000.0001) // End MONITOR dynamic field statistics
(PID.TID 0000.0001) // =======================================================
(PID.TID 0000.0001) // =======================================================
(PID.TID 0000.0001) // Begin OBCS MONITOR field statistics
(PID.TID 0000.0001) // =======================================================
(PID.TID 0000.0001) %MON obc_N_vVel_max               =  -6.7660375503929E-08
(PID.TID 0000.0001) %MON obc_N_vVel_min               =  -6.7660375503930E-08
(PID.TID 0000.0001) %MON obc_N_vVel_mean              =  -6.7660375503929E-08
(PID.TID 0000.0001) %MON obc_N_vVel_sd                =   1.1443378446363E-14
(PID.TID 0000.0001) %MON obc_N_vVel_Int               =  -4.4655847832593E+00
(PID.TID 0000.0001) // =======================================================
(PID.TID 0000.0001) // End OBCS MONITOR field statistics
(PID.TID 0000.0001) // =======================================================
 cg2d: Sum(rhs),rhsMax =   3.01213936668798E+00  4.53051900311468E+02
(PID.TID 0000.0001)      cg2d_init_res =   1.82357416337548E-06
(PID.TID 0000.0001)      cg2d_iters(min,last) =      -1      66
(PID.TID 0000.0001)      cg2d_last_res =   8.31539154570669E-12
(PID.TID 0000.0001) // =======================================================
(PID.TID 0000.0001) // Begin MONITOR dynamic field statistics
(PID.TID 0000.0001) // =======================================================
(PID.TID 0000.0001) %MON time_tsnumber                =                   324
(PID.TID 0000.0001) %MON time_secondsf                =   3.2400000000000E+04
(PID.TID 0000.0001) %MON dynstat_eta_max              =   5.7963822648868E+00
(PID.TID 0000.0001) %MON dynstat_eta_min              =  -1.4177068718163E+01
(PID.TID 0000.0001) %MON dynstat_eta_mean             =  -2.5271397482981E+00
(PID.TID 0000.0001) %MON dynstat_eta_sd               =   4.9419980643492E+00
(PID.TID 0000.0001) %MON dynstat_eta_del2             =   1.9058060753522E-01
(PID.TID 0000.0001) %MON dynstat_uvel_max             =   1.5686777344577E-03
(PID.TID 0000.0001) %MON dynstat_uvel_min             =  -3.4806642733995E-03
(PID.TID 0000.0001) %MON dynstat_uvel_mean            =  -5.7075392728793E-10
(PID.TID 0000.0001) %MON dynstat_uvel_sd              =   1.0713482226826E-04
(PID.TID 0000.0001) %MON dynstat_uvel_del2            =   3.0131846061564E-07
(PID.TID 0000.0001) %MON dynstat_vvel_max             =   3.1923918806340E-03
(PID.TID 0000.0001) %MON dynstat_vvel_min             =  -1.6488249013182E-03
(PID.TID 0000.0001) %MON dynstat_vvel_mean            =  -6.4776720561511E-08
(PID.TID 0000.0001) %MON dynstat_vvel_sd              =   1.0460315258069E-04
(PID.TID 0000.0001) %MON dynstat_vvel_del2            =   3.3873777894150E-07
(PID.TID 0000.0001) %MON dynstat_wvel_max             =   1.7018590832986E-04
(PID.TID 0000.0001) %MON dynstat_wvel_min             =  -7.9680516074072E-05
(PID.TID 0000.0001) %MON dynstat_wvel_mean            =   1.0386113261812E-10
(PID.TID 0000.0001) %MON dynstat_wvel_sd              =   1.7584779579253E-05
(PID.TID 0000.0001) %MON dynstat_wvel_del2            =   8.5578791316470E-08
(PID.TID 0000.0001) %MON dynstat_theta_max            =   1.2000000000000E+00
(PID.TID 0000.0001) %MON dynstat_theta_min            =  -1.0000000000000E+00
(PID.TID 0000.0001) %MON dynstat_theta_mean           =   5.6543915465067E-01
(PID.TID 0000.0001) %MON dynstat_theta_sd             =   8.4905464724820E-01
(PID.TID 0000.0001) %MON dynstat_theta_del2           =   1.0187356544824E-06
(PID.TID 0000.0001) %MON dynstat_salt_max             =   3.4700000000000E+01
(PID.TID 0000.0001) %MON dynstat_salt_min             =   3.4000000000000E+01
(PID.TID 0000.0001) %MON dynstat_salt_mean            =   3.4498089100205E+01
(PID.TID 0000.0001) %MON dynstat_salt_sd              =   2.7015432483519E-01
(PID.TID 0000.0001) %MON dynstat_salt_del2            =   3.3502149337417E-07
(PID.TID 0000.0001) %MON advcfl_uvel_max              =   3.4806642733995E-04
(PID.TID 0000.0001) %MON advcfl_vvel_max              =   3.1923918806340E-04
(PID.TID 0000.0001) %MON advcfl_wvel_max              =   8.5092954164931E-04
(PID.TID 0000.0001) %MON advcfl_W_hf_max              =   8.5092954164931E-04
(PID.TID 0000.0001) %MON pe_b_mean                    =  -6.8284145028666E-01
(PID.TID 0000.0001) %MON ke_max                       =   4.9073314977367E-06
(PID.TID 0000.0001) %MON ke_mean                      =   1.1101785780043E-08
(PID.TID 0000.0001) %MON ke_vol                       =   4.6182887784900E+12
(PID.TID 0000.0001) // =======================================================
(PID.TID 0000.0001) // End MONITOR dynamic field statistics
(PID.TID 0000.0001) // =======================================================
(PID.TID 0000.0001) // =======================================================
(PID.TID 0000.0001) // Begin OBCS MONITOR field statistics
(PID.TID 0000.0001) // =======================================================
(PID.TID 0000.0001) %MON obc_N_vVel_max               =  -7.1662940243144E-08
(PID.TID 0000.0001) %MON obc_N_vVel_min               =  -7.1662940243145E-08
(PID.TID 0000.0001) %MON obc_N_vVel_mean              =  -7.1662940243145E-08
(PID.TID 0000.0001) %MON obc_N_vVel_sd                =  -1.0255191767873E-29
(PID.TID 0000.0001) %MON obc_N_vVel_Int               =  -4.7297540560475E+00
(PID.TID 0000.0001) // =======================================================
(PID.TID 0000.0001) // End OBCS MONITOR field statistics
(PID.TID 0000.0001) // =======================================================
 cg2d: Sum(rhs),rhsMax =   3.01213713938533E+00  4.53051890096068E+02
(PID.TID 0000.0001)      cg2d_init_res =   1.81750449535687E-06
(PID.TID 0000.0001)      cg2d_iters(min,last) =      -1      66
(PID.TID 0000.0001)      cg2d_last_res =   8.39777312559332E-12
(PID.TID 0000.0001) // =======================================================
(PID.TID 0000.0001) // Begin MONITOR dynamic field statistics
(PID.TID 0000.0001) // =======================================================
(PID.TID 0000.0001) %MON time_tsnumber                =                   325
(PID.TID 0000.0001) %MON time_secondsf                =   3.2500000000000E+04
(PID.TID 0000.0001) %MON dynstat_eta_max              =   5.7963849252710E+00
(PID.TID 0000.0001) %MON dynstat_eta_min              =  -1.4177063345120E+01
(PID.TID 0000.0001) %MON dynstat_eta_mean             =  -2.5271378226428E+00
(PID.TID 0000.0001) %MON dynstat_eta_sd               =   4.9419974385784E+00
(PID.TID 0000.0001) %MON dynstat_eta_del2             =   1.9058060832874E-01
(PID.TID 0000.0001) %MON dynstat_uvel_max             =   1.5723761461750E-03
(PID.TID 0000.0001) %MON dynstat_uvel_min             =  -3.4762754951299E-03
(PID.TID 0000.0001) %MON dynstat_uvel_mean            =  -5.7219012430979E-10
(PID.TID 0000.0001) %MON dynstat_uvel_sd              =   1.0748592039835E-04
(PID.TID 0000.0001) %MON dynstat_uvel_del2            =   3.0085084460726E-07
(PID.TID 0000.0001) %MON dynstat_vvel_max             =   3.1885981451705E-03
(PID.TID 0000.0001) %MON dynstat_vvel_min             =  -1.6456317967180E-03
(PID.TID 0000.0001) %MON dynstat_vvel_mean            =  -6.9231995139059E-08
(PID.TID 0000.0001) %MON dynstat_vvel_sd              =   1.0467614365039E-04
(PID.TID 0000.0001) %MON dynstat_vvel_del2            =   3.3810758497807E-07
(PID.TID 0000.0001) %MON dynstat_wvel_max             =   1.6959493492477E-04
(PID.TID 0000.0001) %MON dynstat_wvel_min             =  -8.1560860747757E-05
(PID.TID 0000.0001) %MON dynstat_wvel_mean            =   1.0373250711785E-10
(PID.TID 0000.0001) %MON dynstat_wvel_sd              =   1.7544447812438E-05
(PID.TID 0000.0001) %MON dynstat_wvel_del2            =   8.5300981133347E-08
(PID.TID 0000.0001) %MON dynstat_theta_max            =   1.2000000000000E+00
(PID.TID 0000.0001) %MON dynstat_theta_min            =  -1.0000000000000E+00
(PID.TID 0000.0001) %MON dynstat_theta_mean           =   5.6543894860738E-01
(PID.TID 0000.0001) %MON dynstat_theta_sd             =   8.4905460278122E-01
(PID.TID 0000.0001) %MON dynstat_theta_del2           =   1.0162476363567E-06
(PID.TID 0000.0001) %MON dynstat_salt_max             =   3.4700000000000E+01
(PID.TID 0000.0001) %MON dynstat_salt_min             =   3.4000000000000E+01
(PID.TID 0000.0001) %MON dynstat_salt_mean            =   3.4498089018482E+01
(PID.TID 0000.0001) %MON dynstat_salt_sd              =   2.7015431206161E-01
(PID.TID 0000.0001) %MON dynstat_salt_del2            =   3.3440989780217E-07
(PID.TID 0000.0001) %MON advcfl_uvel_max              =   3.4762754951299E-04
(PID.TID 0000.0001) %MON advcfl_vvel_max              =   3.1885981451705E-04
(PID.TID 0000.0001) %MON advcfl_wvel_max              =   8.4797467462385E-04
(PID.TID 0000.0001) %MON advcfl_W_hf_max              =   8.4797467462385E-04
(PID.TID 0000.0001) %MON pe_b_mean                    =  -6.8284094638515E-01
(PID.TID 0000.0001) %MON ke_max                       =   4.9098266722740E-06
(PID.TID 0000.0001) %MON ke_mean                      =   1.1146391821426E-08
(PID.TID 0000.0001) %MON ke_vol                       =   4.6182887898951E+12
(PID.TID 0000.0001) // =======================================================
(PID.TID 0000.0001) // End MONITOR dynamic field statistics
(PID.TID 0000.0001) // =======================================================
(PID.TID 0000.0001) // =======================================================
(PID.TID 0000.0001) // Begin OBCS MONITOR field statistics
(PID.TID 0000.0001) // =======================================================
(PID.TID 0000.0001) %MON obc_N_vVel_max               =  -7.5755655465735E-08
(PID.TID 0000.0001) %MON obc_N_vVel_min               =  -7.5755655465736E-08
(PID.TID 0000.0001) %MON obc_N_vVel_mean              =  -7.5755655465736E-08
(PID.TID 0000.0001) %MON obc_N_vVel_sd                =  -2.5243548967072E-28
(PID.TID 0000.0001) %MON obc_N_vVel_Int               =  -4.9998732607386E+00
(PID.TID 0000.0001) // =======================================================
(PID.TID 0000.0001) // End OBCS MONITOR field statistics
(PID.TID 0000.0001) // =======================================================
 cg2d: Sum(rhs),rhsMax =   3.01213490688949E+00  4.53051879662132E+02
(PID.TID 0000.0001)      cg2d_init_res =   1.81226528047240E-06
(PID.TID 0000.0001)      cg2d_iters(min,last) =      -1      66
(PID.TID 0000.0001)      cg2d_last_res =   8.47136036681524E-12
(PID.TID 0000.0001) // =======================================================
(PID.TID 0000.0001) // Begin MONITOR dynamic field statistics
(PID.TID 0000.0001) // =======================================================
(PID.TID 0000.0001) %MON time_tsnumber                =                   326
(PID.TID 0000.0001) %MON time_secondsf                =   3.2600000000000E+04
(PID.TID 0000.0001) %MON dynstat_eta_max              =   5.7963875928067E+00
(PID.TID 0000.0001) %MON dynstat_eta_min              =  -1.4177057962777E+01
(PID.TID 0000.0001) %MON dynstat_eta_mean             =  -2.5271358914115E+00
(PID.TID 0000.0001) %MON dynstat_eta_sd               =   4.9419968113057E+00
(PID.TID 0000.0001) %MON dynstat_eta_del2             =   1.9058060914272E-01
(PID.TID 0000.0001) %MON dynstat_uvel_max             =   1.5760560518583E-03
(PID.TID 0000.0001) %MON dynstat_uvel_min             =  -3.4718349578082E-03
(PID.TID 0000.0001) %MON dynstat_uvel_mean            =  -5.8030332625737E-10
(PID.TID 0000.0001) %MON dynstat_uvel_sd              =   1.0783793407558E-04
(PID.TID 0000.0001) %MON dynstat_uvel_del2            =   3.0038915258317E-07
(PID.TID 0000.0001) %MON dynstat_vvel_max             =   3.1847636266438E-03
(PID.TID 0000.0001) %MON dynstat_vvel_min             =  -1.6502292189831E-03
(PID.TID 0000.0001) %MON dynstat_vvel_mean            =  -7.3561596083601E-08
(PID.TID 0000.0001) %MON dynstat_vvel_sd              =   1.0475015862589E-04
(PID.TID 0000.0001) %MON dynstat_vvel_del2            =   3.3751000308915E-07
(PID.TID 0000.0001) %MON dynstat_wvel_max             =   1.6900193952656E-04
(PID.TID 0000.0001) %MON dynstat_wvel_min             =  -8.4799086276460E-05
(PID.TID 0000.0001) %MON dynstat_wvel_mean            =   1.0452353162914E-10
(PID.TID 0000.0001) %MON dynstat_wvel_sd              =   1.7507623468209E-05
(PID.TID 0000.0001) %MON dynstat_wvel_del2            =   8.5072473075546E-08
(PID.TID 0000.0001) %MON dynstat_theta_max            =   1.2000000000000E+00
(PID.TID 0000.0001) %MON dynstat_theta_min            =  -1.0000000000000E+00
(PID.TID 0000.0001) %MON dynstat_theta_mean           =   5.6543874244306E-01
(PID.TID 0000.0001) %MON dynstat_theta_sd             =   8.4905455830674E-01
(PID.TID 0000.0001) %MON dynstat_theta_del2           =   1.0137581123484E-06
(PID.TID 0000.0001) %MON dynstat_salt_max             =   3.4700000000000E+01
(PID.TID 0000.0001) %MON dynstat_salt_min             =   3.4000000000000E+01
(PID.TID 0000.0001) %MON dynstat_salt_mean            =   3.4498088936712E+01
(PID.TID 0000.0001) %MON dynstat_salt_sd              =   2.7015429927893E-01
(PID.TID 0000.0001) %MON dynstat_salt_del2            =   3.3379833771542E-07
(PID.TID 0000.0001) %MON advcfl_uvel_max              =   3.4718349578082E-04
(PID.TID 0000.0001) %MON advcfl_vvel_max              =   3.1847636266438E-04
(PID.TID 0000.0001) %MON advcfl_wvel_max              =   8.4500969763281E-04
(PID.TID 0000.0001) %MON advcfl_W_hf_max              =   8.4500969763281E-04
(PID.TID 0000.0001) %MON pe_b_mean                    =  -6.8284044124784E-01
(PID.TID 0000.0001) %MON ke_max                       =   4.9122273504682E-06
(PID.TID 0000.0001) %MON ke_mean                      =   1.1191328277992E-08
(PID.TID 0000.0001) %MON ke_vol                       =   4.6182888013335E+12
(PID.TID 0000.0001) // =======================================================
(PID.TID 0000.0001) // End MONITOR dynamic field statistics
(PID.TID 0000.0001) // =======================================================
(PID.TID 0000.0001) // =======================================================
(PID.TID 0000.0001) // Begin OBCS MONITOR field statistics
(PID.TID 0000.0001) // =======================================================
(PID.TID 0000.0001) %MON obc_N_vVel_max               =  -7.9810377175129E-08
(PID.TID 0000.0001) %MON obc_N_vVel_min               =  -7.9810377175131E-08
(PID.TID 0000.0001) %MON obc_N_vVel_mean              =  -7.9810377175129E-08
(PID.TID 0000.0001) %MON obc_N_vVel_sd                =   1.6592542177802E-14
(PID.TID 0000.0001) %MON obc_N_vVel_Int               =  -5.2674848935585E+00
(PID.TID 0000.0001) // =======================================================
(PID.TID 0000.0001) // End OBCS MONITOR field statistics
(PID.TID 0000.0001) // =======================================================
 cg2d: Sum(rhs),rhsMax =   3.01213266926848E+00  4.53051869029205E+02
(PID.TID 0000.0001)      cg2d_init_res =   1.80793939144591E-06
(PID.TID 0000.0001)      cg2d_iters(min,last) =      -1      66
(PID.TID 0000.0001)      cg2d_last_res =   8.54738668301393E-12
(PID.TID 0000.0001) // =======================================================
(PID.TID 0000.0001) // Begin MONITOR dynamic field statistics
(PID.TID 0000.0001) // =======================================================
(PID.TID 0000.0001) %MON time_tsnumber                =                   327
(PID.TID 0000.0001) %MON time_secondsf                =   3.2700000000000E+04
(PID.TID 0000.0001) %MON dynstat_eta_max              =   5.7963902672036E+00
(PID.TID 0000.0001) %MON dynstat_eta_min              =  -1.4177052571637E+01
(PID.TID 0000.0001) %MON dynstat_eta_mean             =  -2.5271339547704E+00
(PID.TID 0000.0001) %MON dynstat_eta_sd               =   4.9419961827029E+00
(PID.TID 0000.0001) %MON dynstat_eta_del2             =   1.9058060997801E-01
(PID.TID 0000.0001) %MON dynstat_uvel_max             =   1.5797177563037E-03
(PID.TID 0000.0001) %MON dynstat_uvel_min             =  -3.4673432638248E-03
(PID.TID 0000.0001) %MON dynstat_uvel_mean            =  -5.9508798009575E-10
(PID.TID 0000.0001) %MON dynstat_uvel_sd              =   1.0819084223076E-04
(PID.TID 0000.0001) %MON dynstat_uvel_del2            =   2.9993338825141E-07
(PID.TID 0000.0001) %MON dynstat_vvel_max             =   3.1808888534641E-03
(PID.TID 0000.0001) %MON dynstat_vvel_min             =  -1.6550982758545E-03
(PID.TID 0000.0001) %MON dynstat_vvel_mean            =  -7.7628729550758E-08
(PID.TID 0000.0001) %MON dynstat_vvel_sd              =   1.0482515449543E-04
(PID.TID 0000.0001) %MON dynstat_vvel_del2            =   3.3694363751976E-07
(PID.TID 0000.0001) %MON dynstat_wvel_max             =   1.6840696330148E-04
(PID.TID 0000.0001) %MON dynstat_wvel_min             =  -8.7815076086878E-05
(PID.TID 0000.0001) %MON dynstat_wvel_mean            =   1.0621527533799E-10
(PID.TID 0000.0001) %MON dynstat_wvel_sd              =   1.7474256375536E-05
(PID.TID 0000.0001) %MON dynstat_wvel_del2            =   8.4891723602000E-08
(PID.TID 0000.0001) %MON dynstat_theta_max            =   1.2000000000000E+00
(PID.TID 0000.0001) %MON dynstat_theta_min            =  -1.0000000000000E+00
(PID.TID 0000.0001) %MON dynstat_theta_mean           =   5.6543853615576E-01
(PID.TID 0000.0001) %MON dynstat_theta_sd             =   8.4905451379717E-01
(PID.TID 0000.0001) %MON dynstat_theta_del2           =   1.0112690126189E-06
(PID.TID 0000.0001) %MON dynstat_salt_max             =   3.4700000000000E+01
(PID.TID 0000.0001) %MON dynstat_salt_min             =   3.4000000000000E+01
(PID.TID 0000.0001) %MON dynstat_salt_mean            =   3.4498088854892E+01
(PID.TID 0000.0001) %MON dynstat_salt_sd              =   2.7015428647815E-01
(PID.TID 0000.0001) %MON dynstat_salt_del2            =   3.3318740589830E-07
(PID.TID 0000.0001) %MON advcfl_uvel_max              =   3.4673432638248E-04
(PID.TID 0000.0001) %MON advcfl_vvel_max              =   3.1808888534641E-04
(PID.TID 0000.0001) %MON advcfl_wvel_max              =   8.4203481650738E-04
(PID.TID 0000.0001) %MON advcfl_W_hf_max              =   8.4203481650738E-04
(PID.TID 0000.0001) %MON pe_b_mean                    =  -6.8283993493347E-01
(PID.TID 0000.0001) %MON ke_max                       =   4.9145342004270E-06
(PID.TID 0000.0001) %MON ke_mean                      =   1.1236589568625E-08
(PID.TID 0000.0001) %MON ke_vol                       =   4.6182888128050E+12
(PID.TID 0000.0001) // =======================================================
(PID.TID 0000.0001) // End MONITOR dynamic field statistics
(PID.TID 0000.0001) // =======================================================
(PID.TID 0000.0001) // =======================================================
(PID.TID 0000.0001) // Begin OBCS MONITOR field statistics
(PID.TID 0000.0001) // =======================================================
(PID.TID 0000.0001) %MON obc_N_vVel_max               =  -8.3699776084157E-08
(PID.TID 0000.0001) %MON obc_N_vVel_min               =  -8.3699776084159E-08
(PID.TID 0000.0001) %MON obc_N_vVel_mean              =  -8.3699776084157E-08
(PID.TID 0000.0001) %MON obc_N_vVel_sd                =   1.4755528111220E-14
(PID.TID 0000.0001) %MON obc_N_vVel_Int               =  -5.5241852215543E+00
(PID.TID 0000.0001) // =======================================================
(PID.TID 0000.0001) // End OBCS MONITOR field statistics
(PID.TID 0000.0001) // =======================================================
 cg2d: Sum(rhs),rhsMax =   3.01213042672833E+00  4.53051858218822E+02
(PID.TID 0000.0001)      cg2d_init_res =   1.80448747630645E-06
(PID.TID 0000.0001)      cg2d_iters(min,last) =      -1      66
(PID.TID 0000.0001)      cg2d_last_res =   8.64335032909905E-12
(PID.TID 0000.0001) // =======================================================
(PID.TID 0000.0001) // Begin MONITOR dynamic field statistics
(PID.TID 0000.0001) // =======================================================
(PID.TID 0000.0001) %MON time_tsnumber                =                   328
(PID.TID 0000.0001) %MON time_secondsf                =   3.2800000000000E+04
(PID.TID 0000.0001) %MON dynstat_eta_max              =   5.7963929480042E+00
(PID.TID 0000.0001) %MON dynstat_eta_min              =  -1.4177047172510E+01
(PID.TID 0000.0001) %MON dynstat_eta_mean             =  -2.5271320130125E+00
(PID.TID 0000.0001) %MON dynstat_eta_sd               =   4.9419955529638E+00
(PID.TID 0000.0001) %MON dynstat_eta_del2             =   1.9058061083510E-01
(PID.TID 0000.0001) %MON dynstat_uvel_max             =   1.5833615577421E-03
(PID.TID 0000.0001) %MON dynstat_uvel_min             =  -3.4628010162066E-03
(PID.TID 0000.0001) %MON dynstat_uvel_mean            =  -6.1630066302316E-10
(PID.TID 0000.0001) %MON dynstat_uvel_sd              =   1.0854462458646E-04
(PID.TID 0000.0001) %MON dynstat_uvel_del2            =   2.9948356247288E-07
(PID.TID 0000.0001) %MON dynstat_vvel_max             =   3.1769743489711E-03
(PID.TID 0000.0001) %MON dynstat_vvel_min             =  -1.6599411521749E-03
(PID.TID 0000.0001) %MON dynstat_vvel_mean            =  -8.1304888043330E-08
(PID.TID 0000.0001) %MON dynstat_vvel_sd              =   1.0490092965054E-04
(PID.TID 0000.0001) %MON dynstat_vvel_del2            =   3.3640363154981E-07
(PID.TID 0000.0001) %MON dynstat_wvel_max             =   1.6781004662473E-04
(PID.TID 0000.0001) %MON dynstat_wvel_min             =  -9.0015553520305E-05
(PID.TID 0000.0001) %MON dynstat_wvel_mean            =   1.0875676326527E-10
(PID.TID 0000.0001) %MON dynstat_wvel_sd              =   1.7443843413087E-05
(PID.TID 0000.0001) %MON dynstat_wvel_del2            =   8.4750792073059E-08
(PID.TID 0000.0001) %MON dynstat_theta_max            =   1.2000000000000E+00
(PID.TID 0000.0001) %MON dynstat_theta_min            =  -1.0000000000000E+00
(PID.TID 0000.0001) %MON dynstat_theta_mean           =   5.6543832974256E-01
(PID.TID 0000.0001) %MON dynstat_theta_sd             =   8.4905446924007E-01
(PID.TID 0000.0001) %MON dynstat_theta_del2           =   1.0087857707825E-06
(PID.TID 0000.0001) %MON dynstat_salt_max             =   3.4700000000000E+01
(PID.TID 0000.0001) %MON dynstat_salt_min             =   3.4000000000000E+01
(PID.TID 0000.0001) %MON dynstat_salt_mean            =   3.4498088773022E+01
(PID.TID 0000.0001) %MON dynstat_salt_sd              =   2.7015427365488E-01
(PID.TID 0000.0001) %MON dynstat_salt_del2            =   3.3257876689595E-07
(PID.TID 0000.0001) %MON advcfl_uvel_max              =   3.4628010162066E-04
(PID.TID 0000.0001) %MON advcfl_vvel_max              =   3.1769743489711E-04
(PID.TID 0000.0001) %MON advcfl_wvel_max              =   8.3905023312365E-04
(PID.TID 0000.0001) %MON advcfl_W_hf_max              =   8.3905023312365E-04
(PID.TID 0000.0001) %MON pe_b_mean                    =  -6.8283942752348E-01
(PID.TID 0000.0001) %MON ke_max                       =   4.9167478785838E-06
(PID.TID 0000.0001) %MON ke_mean                      =   1.1282153521801E-08
(PID.TID 0000.0001) %MON ke_vol                       =   4.6182888243087E+12
(PID.TID 0000.0001) // =======================================================
(PID.TID 0000.0001) // End MONITOR dynamic field statistics
(PID.TID 0000.0001) // =======================================================
(PID.TID 0000.0001) // =======================================================
(PID.TID 0000.0001) // Begin OBCS MONITOR field statistics
(PID.TID 0000.0001) // =======================================================
(PID.TID 0000.0001) %MON obc_N_vVel_max               =  -8.7301638331522E-08
(PID.TID 0000.0001) %MON obc_N_vVel_min               =  -8.7301638331525E-08
(PID.TID 0000.0001) %MON obc_N_vVel_mean              =  -8.7301638331525E-08
(PID.TID 0000.0001) %MON obc_N_vVel_sd                =  -3.6129829459122E-28
(PID.TID 0000.0001) %MON obc_N_vVel_Int               =  -5.7619081298807E+00
(PID.TID 0000.0001) // =======================================================
(PID.TID 0000.0001) // End OBCS MONITOR field statistics
(PID.TID 0000.0001) // =======================================================
 cg2d: Sum(rhs),rhsMax =   3.01212817963449E+00  4.53051847253927E+02
(PID.TID 0000.0001)      cg2d_init_res =   1.80177585404742E-06
(PID.TID 0000.0001)      cg2d_iters(min,last) =      -1      66
(PID.TID 0000.0001)      cg2d_last_res =   8.76836183164568E-12
(PID.TID 0000.0001) // =======================================================
(PID.TID 0000.0001) // Begin MONITOR dynamic field statistics
(PID.TID 0000.0001) // =======================================================
(PID.TID 0000.0001) %MON time_tsnumber                =                   329
(PID.TID 0000.0001) %MON time_secondsf                =   3.2900000000000E+04
(PID.TID 0000.0001) %MON dynstat_eta_max              =   5.7963956346096E+00
(PID.TID 0000.0001) %MON dynstat_eta_min              =  -1.4177041766432E+01
(PID.TID 0000.0001) %MON dynstat_eta_mean             =  -2.5271300665722E+00
(PID.TID 0000.0001) %MON dynstat_eta_sd               =   4.9419949223149E+00
(PID.TID 0000.0001) %MON dynstat_eta_del2             =   1.9058061171428E-01
(PID.TID 0000.0001) %MON dynstat_uvel_max             =   1.5869877535497E-03
(PID.TID 0000.0001) %MON dynstat_uvel_min             =  -3.4582088196460E-03
(PID.TID 0000.0001) %MON dynstat_uvel_mean            =  -6.4348592855593E-10
(PID.TID 0000.0001) %MON dynstat_uvel_sd              =   1.0889926167764E-04
(PID.TID 0000.0001) %MON dynstat_uvel_del2            =   2.9903969353312E-07
(PID.TID 0000.0001) %MON dynstat_vvel_max             =   3.1730206287355E-03
(PID.TID 0000.0001) %MON dynstat_vvel_min             =  -1.6647577296647E-03
(PID.TID 0000.0001) %MON dynstat_vvel_mean            =  -8.4474249594351E-08
(PID.TID 0000.0001) %MON dynstat_vvel_sd              =   1.0497715197472E-04
(PID.TID 0000.0001) %MON dynstat_vvel_del2            =   3.3588233664410E-07
(PID.TID 0000.0001) %MON dynstat_wvel_max             =   1.6721123015417E-04
(PID.TID 0000.0001) %MON dynstat_wvel_min             =  -9.0436374752420E-05
(PID.TID 0000.0001) %MON dynstat_wvel_mean            =   1.1207146204447E-10
(PID.TID 0000.0001) %MON dynstat_wvel_sd              =   1.7415504624108E-05
(PID.TID 0000.0001) %MON dynstat_wvel_del2            =   8.4636550216964E-08
(PID.TID 0000.0001) %MON dynstat_theta_max            =   1.2000000000000E+00
(PID.TID 0000.0001) %MON dynstat_theta_min            =  -1.0000000000000E+00
(PID.TID 0000.0001) %MON dynstat_theta_mean           =   5.6543812320243E-01
(PID.TID 0000.0001) %MON dynstat_theta_sd             =   8.4905442459399E-01
(PID.TID 0000.0001) %MON dynstat_theta_del2           =   1.0063162103398E-06
(PID.TID 0000.0001) %MON dynstat_salt_max             =   3.4700000000000E+01
(PID.TID 0000.0001) %MON dynstat_salt_min             =   3.4000000000000E+01
(PID.TID 0000.0001) %MON dynstat_salt_mean            =   3.4498088691101E+01
(PID.TID 0000.0001) %MON dynstat_salt_sd              =   2.7015426079615E-01
(PID.TID 0000.0001) %MON dynstat_salt_del2            =   3.3197482929867E-07
(PID.TID 0000.0001) %MON advcfl_uvel_max              =   3.4582088196460E-04
(PID.TID 0000.0001) %MON advcfl_vvel_max              =   3.1730206287355E-04
(PID.TID 0000.0001) %MON advcfl_wvel_max              =   8.3605615077085E-04
(PID.TID 0000.0001) %MON advcfl_W_hf_max              =   8.3605615077085E-04
(PID.TID 0000.0001) %MON pe_b_mean                    =  -6.8283891912820E-01
(PID.TID 0000.0001) %MON ke_max                       =   4.9188690233456E-06
(PID.TID 0000.0001) %MON ke_mean                      =   1.1327984267592E-08
(PID.TID 0000.0001) %MON ke_vol                       =   4.6182888358427E+12
(PID.TID 0000.0001) // =======================================================
(PID.TID 0000.0001) // End MONITOR dynamic field statistics
(PID.TID 0000.0001) // =======================================================
(PID.TID 0000.0001) // =======================================================
(PID.TID 0000.0001) // Begin OBCS MONITOR field statistics
(PID.TID 0000.0001) // =======================================================
(PID.TID 0000.0001) %MON obc_N_vVel_max               =  -9.0503443819956E-08
(PID.TID 0000.0001) %MON obc_N_vVel_min               =  -9.0503443819958E-08
(PID.TID 0000.0001) %MON obc_N_vVel_mean              =  -9.0503443819956E-08
(PID.TID 0000.0001) %MON obc_N_vVel_sd                =   1.9007848236747E-14
(PID.TID 0000.0001) %MON obc_N_vVel_Int               =  -5.9732272921171E+00
(PID.TID 0000.0001) // =======================================================
(PID.TID 0000.0001) // End OBCS MONITOR field statistics
(PID.TID 0000.0001) // =======================================================
 cg2d: Sum(rhs),rhsMax =   3.01212592848331E+00  4.53051836158427E+02
(PID.TID 0000.0001)      cg2d_init_res =   1.79953462721199E-06
(PID.TID 0000.0001)      cg2d_iters(min,last) =      -1      66
(PID.TID 0000.0001)      cg2d_last_res =   8.90892653082072E-12
(PID.TID 0000.0001) // =======================================================
(PID.TID 0000.0001) // Begin MONITOR dynamic field statistics
(PID.TID 0000.0001) // =======================================================
(PID.TID 0000.0001) %MON time_tsnumber                =                   330
(PID.TID 0000.0001) %MON time_secondsf                =   3.3000000000000E+04
(PID.TID 0000.0001) %MON dynstat_eta_max              =   5.7963983262881E+00
(PID.TID 0000.0001) %MON dynstat_eta_min              =  -1.4177036354577E+01
(PID.TID 0000.0001) %MON dynstat_eta_mean             =  -2.5271281159996E+00
(PID.TID 0000.0001) %MON dynstat_eta_sd               =   4.9419942910050E+00
(PID.TID 0000.0001) %MON dynstat_eta_del2             =   1.9058061261564E-01
(PID.TID 0000.0001) %MON dynstat_uvel_max             =   1.5905966370777E-03
(PID.TID 0000.0001) %MON dynstat_uvel_min             =  -3.4535672791378E-03
(PID.TID 0000.0001) %MON dynstat_uvel_mean            =  -6.7597765299261E-10
(PID.TID 0000.0001) %MON dynstat_uvel_sd              =   1.0925473478297E-04
(PID.TID 0000.0001) %MON dynstat_uvel_del2            =   2.9860180622819E-07
(PID.TID 0000.0001) %MON dynstat_vvel_max             =   3.1690281986103E-03
(PID.TID 0000.0001) %MON dynstat_vvel_min             =  -1.6695479004731E-03
(PID.TID 0000.0001) %MON dynstat_vvel_mean            =  -8.7037612641843E-08
(PID.TID 0000.0001) %MON dynstat_vvel_sd              =   1.0505340428307E-04
(PID.TID 0000.0001) %MON dynstat_vvel_del2            =   3.3537034631579E-07
(PID.TID 0000.0001) %MON dynstat_wvel_max             =   1.6661055410529E-04
(PID.TID 0000.0001) %MON dynstat_wvel_min             =  -8.9080451720625E-05
(PID.TID 0000.0001) %MON dynstat_wvel_mean            =   1.1605942059271E-10
(PID.TID 0000.0001) %MON dynstat_wvel_sd              =   1.7388109010325E-05
(PID.TID 0000.0001) %MON dynstat_wvel_del2            =   8.4532572122287E-08
(PID.TID 0000.0001) %MON dynstat_theta_max            =   1.2000000000000E+00
(PID.TID 0000.0001) %MON dynstat_theta_min            =  -1.0000000000000E+00
(PID.TID 0000.0001) %MON dynstat_theta_mean           =   5.6543791653491E-01
(PID.TID 0000.0001) %MON dynstat_theta_sd             =   8.4905437981664E-01
(PID.TID 0000.0001) %MON dynstat_theta_del2           =   1.0038687630668E-06
(PID.TID 0000.0001) %MON dynstat_salt_max             =   3.4700000000000E+01
(PID.TID 0000.0001) %MON dynstat_salt_min             =   3.4000000000000E+01
(PID.TID 0000.0001) %MON dynstat_salt_mean            =   3.4498088609129E+01
(PID.TID 0000.0001) %MON dynstat_salt_sd              =   2.7015424788836E-01
(PID.TID 0000.0001) %MON dynstat_salt_del2            =   3.3137818302459E-07
(PID.TID 0000.0001) %MON advcfl_uvel_max              =   3.4535672791378E-04
(PID.TID 0000.0001) %MON advcfl_vvel_max              =   3.1690281986103E-04
(PID.TID 0000.0001) %MON advcfl_wvel_max              =   8.3305277052643E-04
(PID.TID 0000.0001) %MON advcfl_W_hf_max              =   8.3305277052643E-04
(PID.TID 0000.0001) %MON pe_b_mean                    =  -6.8283840987937E-01
(PID.TID 0000.0001) %MON ke_max                       =   4.9208982529358E-06
(PID.TID 0000.0001) %MON ke_mean                      =   1.1374036954614E-08
(PID.TID 0000.0001) %MON ke_vol                       =   4.6182888474046E+12
(PID.TID 0000.0001) // =======================================================
(PID.TID 0000.0001) // End MONITOR dynamic field statistics
(PID.TID 0000.0001) // =======================================================
(PID.TID 0000.0001) // =======================================================
(PID.TID 0000.0001) // Begin OBCS MONITOR field statistics
(PID.TID 0000.0001) // =======================================================
(PID.TID 0000.0001) %MON obc_N_vVel_max               =  -9.3205779801042E-08
(PID.TID 0000.0001) %MON obc_N_vVel_min               =  -9.3205779801046E-08
(PID.TID 0000.0001) %MON obc_N_vVel_mean              =  -9.3205779801046E-08
(PID.TID 0000.0001) %MON obc_N_vVel_sd                =  -6.9577531840493E-28
(PID.TID 0000.0001) %MON obc_N_vVel_Int               =  -6.1515814668690E+00
(PID.TID 0000.0001) // =======================================================
(PID.TID 0000.0001) // End OBCS MONITOR field statistics
(PID.TID 0000.0001) // =======================================================
 cg2d: Sum(rhs),rhsMax =   3.01212367386047E+00  4.53051824956752E+02
(PID.TID 0000.0001)      cg2d_init_res =   1.79742551008063E-06
(PID.TID 0000.0001)      cg2d_iters(min,last) =      -1      66
(PID.TID 0000.0001)      cg2d_last_res =   9.02999173804778E-12
(PID.TID 0000.0001) // =======================================================
(PID.TID 0000.0001) // Begin MONITOR dynamic field statistics
(PID.TID 0000.0001) // =======================================================
(PID.TID 0000.0001) %MON time_tsnumber                =                   331
(PID.TID 0000.0001) %MON time_secondsf                =   3.3100000000000E+04
(PID.TID 0000.0001) %MON dynstat_eta_max              =   5.7964010221181E+00
(PID.TID 0000.0001) %MON dynstat_eta_min              =  -1.4177030938310E+01
(PID.TID 0000.0001) %MON dynstat_eta_mean             =  -2.5271261619221E+00
(PID.TID 0000.0001) %MON dynstat_eta_sd               =   4.9419936592987E+00
(PID.TID 0000.0001) %MON dynstat_eta_del2             =   1.9058061353956E-01
(PID.TID 0000.0001) %MON dynstat_uvel_max             =   1.5941884991975E-03
(PID.TID 0000.0001) %MON dynstat_uvel_min             =  -3.4488770004923E-03
(PID.TID 0000.0001) %MON dynstat_uvel_mean            =  -7.1290495411848E-10
(PID.TID 0000.0001) %MON dynstat_uvel_sd              =   1.0961102586643E-04
(PID.TID 0000.0001) %MON dynstat_uvel_del2            =   2.9816993117285E-07
(PID.TID 0000.0001) %MON dynstat_vvel_max             =   3.1649975535526E-03
(PID.TID 0000.0001) %MON dynstat_vvel_min             =  -1.6743115684621E-03
(PID.TID 0000.0001) %MON dynstat_vvel_mean            =  -8.8915679692619E-08
(PID.TID 0000.0001) %MON dynstat_vvel_sd              =   1.0512923970239E-04
(PID.TID 0000.0001) %MON dynstat_vvel_del2            =   3.3485773577143E-07
(PID.TID 0000.0001) %MON dynstat_wvel_max             =   1.6600805875902E-04
(PID.TID 0000.0001) %MON dynstat_wvel_min             =  -8.5986723358389E-05
(PID.TID 0000.0001) %MON dynstat_wvel_mean            =   1.2059748714787E-10
(PID.TID 0000.0001) %MON dynstat_wvel_sd              =   1.7360429650699E-05
(PID.TID 0000.0001) %MON dynstat_wvel_del2            =   8.4421394629200E-08
(PID.TID 0000.0001) %MON dynstat_theta_max            =   1.2000000000000E+00
(PID.TID 0000.0001) %MON dynstat_theta_min            =  -1.0000000000000E+00
(PID.TID 0000.0001) %MON dynstat_theta_mean           =   5.6543770973792E-01
(PID.TID 0000.0001) %MON dynstat_theta_sd             =   8.4905433490585E-01
(PID.TID 0000.0001) %MON dynstat_theta_del2           =   1.0014520268644E-06
(PID.TID 0000.0001) %MON dynstat_salt_max             =   3.4700000000000E+01
(PID.TID 0000.0001) %MON dynstat_salt_min             =   3.4000000000000E+01
(PID.TID 0000.0001) %MON dynstat_salt_mean            =   3.4498088527106E+01
(PID.TID 0000.0001) %MON dynstat_salt_sd              =   2.7015423493065E-01
(PID.TID 0000.0001) %MON dynstat_salt_del2            =   3.3079146392471E-07
(PID.TID 0000.0001) %MON advcfl_uvel_max              =   3.4488770004923E-04
(PID.TID 0000.0001) %MON advcfl_vvel_max              =   3.1649975535526E-04
(PID.TID 0000.0001) %MON advcfl_wvel_max              =   8.3004029379508E-04
(PID.TID 0000.0001) %MON advcfl_W_hf_max              =   8.3004029379508E-04
(PID.TID 0000.0001) %MON pe_b_mean                    =  -6.8283789992017E-01
(PID.TID 0000.0001) %MON ke_max                       =   4.9228361621066E-06
(PID.TID 0000.0001) %MON ke_mean                      =   1.1420263535311E-08
(PID.TID 0000.0001) %MON ke_vol                       =   4.6182888589910E+12
(PID.TID 0000.0001) // =======================================================
(PID.TID 0000.0001) // End MONITOR dynamic field statistics
(PID.TID 0000.0001) // =======================================================
(PID.TID 0000.0001) // =======================================================
(PID.TID 0000.0001) // Begin OBCS MONITOR field statistics
(PID.TID 0000.0001) // =======================================================
(PID.TID 0000.0001) %MON obc_N_vVel_max               =  -9.5325281772692E-08
(PID.TID 0000.0001) %MON obc_N_vVel_min               =  -9.5325281772694E-08
(PID.TID 0000.0001) %MON obc_N_vVel_mean              =  -9.5325281772694E-08
(PID.TID 0000.0001) %MON obc_N_vVel_sd                =  -2.4139143699763E-28
(PID.TID 0000.0001) %MON obc_N_vVel_Int               =  -6.2914685969978E+00
(PID.TID 0000.0001) // =======================================================
(PID.TID 0000.0001) // End OBCS MONITOR field statistics
(PID.TID 0000.0001) // =======================================================
 cg2d: Sum(rhs),rhsMax =   3.01212141643641E+00  4.53051813673378E+02
(PID.TID 0000.0001)      cg2d_init_res =   1.79509814404525E-06
(PID.TID 0000.0001)      cg2d_iters(min,last) =      -1      66
(PID.TID 0000.0001)      cg2d_last_res =   9.11397947280180E-12
(PID.TID 0000.0001) // =======================================================
(PID.TID 0000.0001) // Begin MONITOR dynamic field statistics
(PID.TID 0000.0001) // =======================================================
(PID.TID 0000.0001) %MON time_tsnumber                =                   332
(PID.TID 0000.0001) %MON time_secondsf                =   3.3200000000000E+04
(PID.TID 0000.0001) %MON dynstat_eta_max              =   5.7964037210118E+00
(PID.TID 0000.0001) %MON dynstat_eta_min              =  -1.4177025519194E+01
(PID.TID 0000.0001) %MON dynstat_eta_mean             =  -2.5271242050388E+00
(PID.TID 0000.0001) %MON dynstat_eta_sd               =   4.9419930274507E+00
(PID.TID 0000.0001) %MON dynstat_eta_del2             =   1.9058061448567E-01
(PID.TID 0000.0001) %MON dynstat_uvel_max             =   1.5977636274886E-03
(PID.TID 0000.0001) %MON dynstat_uvel_min             =  -3.4441385898394E-03
(PID.TID 0000.0001) %MON dynstat_uvel_mean            =  -7.5323406649551E-10
(PID.TID 0000.0001) %MON dynstat_uvel_sd              =   1.0996811753617E-04
(PID.TID 0000.0001) %MON dynstat_uvel_del2            =   2.9774410385103E-07
(PID.TID 0000.0001) %MON dynstat_vvel_max             =   3.1609291757544E-03
(PID.TID 0000.0001) %MON dynstat_vvel_min             =  -1.6790486498728E-03
(PID.TID 0000.0001) %MON dynstat_vvel_mean            =  -9.0051609895448E-08
(PID.TID 0000.0001) %MON dynstat_vvel_sd              =   1.0520424002818E-04
(PID.TID 0000.0001) %MON dynstat_vvel_del2            =   3.3433535052021E-07
(PID.TID 0000.0001) %MON dynstat_wvel_max             =   1.6540378411204E-04
(PID.TID 0000.0001) %MON dynstat_wvel_min             =  -8.3533995859870E-05
(PID.TID 0000.0001) %MON dynstat_wvel_mean            =   1.2554139456274E-10
(PID.TID 0000.0001) %MON dynstat_wvel_sd              =   1.7331308003717E-05
(PID.TID 0000.0001) %MON dynstat_wvel_del2            =   8.4286841016432E-08
(PID.TID 0000.0001) %MON dynstat_theta_max            =   1.2000000000000E+00
(PID.TID 0000.0001) %MON dynstat_theta_min            =  -1.0000000000000E+00
(PID.TID 0000.0001) %MON dynstat_theta_mean           =   5.6543750280934E-01
(PID.TID 0000.0001) %MON dynstat_theta_sd             =   8.4905428989029E-01
(PID.TID 0000.0001) %MON dynstat_theta_del2           =   9.9907378095413E-07
(PID.TID 0000.0001) %MON dynstat_salt_max             =   3.4700000000000E+01
(PID.TID 0000.0001) %MON dynstat_salt_min             =   3.4000000000000E+01
(PID.TID 0000.0001) %MON dynstat_salt_mean            =   3.4498088445030E+01
(PID.TID 0000.0001) %MON dynstat_salt_sd              =   2.7015422193193E-01
(PID.TID 0000.0001) %MON dynstat_salt_del2            =   3.3021706592436E-07
(PID.TID 0000.0001) %MON advcfl_uvel_max              =   3.4441385898394E-04
(PID.TID 0000.0001) %MON advcfl_vvel_max              =   3.1609291757544E-04
(PID.TID 0000.0001) %MON advcfl_wvel_max              =   8.2701892056019E-04
(PID.TID 0000.0001) %MON advcfl_W_hf_max              =   8.2701892056019E-04
(PID.TID 0000.0001) %MON pe_b_mean                    =  -6.8283738940307E-01
(PID.TID 0000.0001) %MON ke_max                       =   4.9246833192894E-06
(PID.TID 0000.0001) %MON ke_mean                      =   1.1466618891829E-08
(PID.TID 0000.0001) %MON ke_vol                       =   4.6182888705982E+12
(PID.TID 0000.0001) // =======================================================
(PID.TID 0000.0001) // End MONITOR dynamic field statistics
(PID.TID 0000.0001) // =======================================================
(PID.TID 0000.0001) // =======================================================
(PID.TID 0000.0001) // Begin OBCS MONITOR field statistics
(PID.TID 0000.0001) // =======================================================
(PID.TID 0000.0001) %MON obc_N_vVel_max               =  -9.6797335424321E-08
(PID.TID 0000.0001) %MON obc_N_vVel_min               =  -9.6797335424325E-08
(PID.TID 0000.0001) %MON obc_N_vVel_mean              =  -9.6797335424321E-08
(PID.TID 0000.0001) %MON obc_N_vVel_sd                =   3.2244668909469E-14
(PID.TID 0000.0001) %MON obc_N_vVel_Int               =  -6.3886241380052E+00
(PID.TID 0000.0001) // =======================================================
(PID.TID 0000.0001) // End OBCS MONITOR field statistics
(PID.TID 0000.0001) // =======================================================
 cg2d: Sum(rhs),rhsMax =   3.01211915693780E+00  4.53051802332519E+02
(PID.TID 0000.0001)      cg2d_init_res =   1.79224078656921E-06
(PID.TID 0000.0001)      cg2d_iters(min,last) =      -1      66
(PID.TID 0000.0001)      cg2d_last_res =   9.16956072551265E-12
(PID.TID 0000.0001) // =======================================================
(PID.TID 0000.0001) // Begin MONITOR dynamic field statistics
(PID.TID 0000.0001) // =======================================================
(PID.TID 0000.0001) %MON time_tsnumber                =                   333
(PID.TID 0000.0001) %MON time_secondsf                =   3.3300000000000E+04
(PID.TID 0000.0001) %MON dynstat_eta_max              =   5.7964064218237E+00
(PID.TID 0000.0001) %MON dynstat_eta_min              =  -1.4177020098875E+01
(PID.TID 0000.0001) %MON dynstat_eta_mean             =  -2.5271222460944E+00
(PID.TID 0000.0001) %MON dynstat_eta_sd               =   4.9419923956991E+00
(PID.TID 0000.0001) %MON dynstat_eta_del2             =   1.9058061545274E-01
(PID.TID 0000.0001) %MON dynstat_uvel_max             =   1.6013223058078E-03
(PID.TID 0000.0001) %MON dynstat_uvel_min             =  -3.4393526534775E-03
(PID.TID 0000.0001) %MON dynstat_uvel_mean            =  -7.9583311083843E-10
(PID.TID 0000.0001) %MON dynstat_uvel_sd              =   1.1032599298810E-04
(PID.TID 0000.0001) %MON dynstat_uvel_del2            =   2.9732436371151E-07
(PID.TID 0000.0001) %MON dynstat_vvel_max             =   3.1568235333346E-03
(PID.TID 0000.0001) %MON dynstat_vvel_min             =  -1.6837590759966E-03
(PID.TID 0000.0001) %MON dynstat_vvel_mean            =  -9.0412855064068E-08
(PID.TID 0000.0001) %MON dynstat_vvel_sd              =   1.0527806911928E-04
(PID.TID 0000.0001) %MON dynstat_vvel_del2            =   3.3379597078291E-07
(PID.TID 0000.0001) %MON dynstat_wvel_max             =   1.6479777094219E-04
(PID.TID 0000.0001) %MON dynstat_wvel_min             =  -8.4033583644407E-05
(PID.TID 0000.0001) %MON dynstat_wvel_mean            =   1.3073439695455E-10
(PID.TID 0000.0001) %MON dynstat_wvel_sd              =   1.7299804811686E-05
(PID.TID 0000.0001) %MON dynstat_wvel_del2            =   8.4116094388479E-08
(PID.TID 0000.0001) %MON dynstat_theta_max            =   1.2000000000000E+00
(PID.TID 0000.0001) %MON dynstat_theta_min            =  -1.0000000000000E+00
(PID.TID 0000.0001) %MON dynstat_theta_mean           =   5.6543729574682E-01
(PID.TID 0000.0001) %MON dynstat_theta_sd             =   8.4905424479125E-01
(PID.TID 0000.0001) %MON dynstat_theta_del2           =   9.9674006957128E-07
(PID.TID 0000.0001) %MON dynstat_salt_max             =   3.4700000000000E+01
(PID.TID 0000.0001) %MON dynstat_salt_min             =   3.4000000000000E+01
(PID.TID 0000.0001) %MON dynstat_salt_mean            =   3.4498088362901E+01
(PID.TID 0000.0001) %MON dynstat_salt_sd              =   2.7015420889893E-01
(PID.TID 0000.0001) %MON dynstat_salt_del2            =   3.2965684778129E-07
(PID.TID 0000.0001) %MON advcfl_uvel_max              =   3.4393526534775E-04
(PID.TID 0000.0001) %MON advcfl_vvel_max              =   3.1568235333346E-04
(PID.TID 0000.0001) %MON advcfl_wvel_max              =   8.2398885471093E-04
(PID.TID 0000.0001) %MON advcfl_W_hf_max              =   8.2398885471093E-04
(PID.TID 0000.0001) %MON pe_b_mean                    =  -6.8283687848465E-01
(PID.TID 0000.0001) %MON ke_max                       =   4.9264402638604E-06
(PID.TID 0000.0001) %MON ke_mean                      =   1.1513066466113E-08
(PID.TID 0000.0001) %MON ke_vol                       =   4.6182888822221E+12
(PID.TID 0000.0001) // =======================================================
(PID.TID 0000.0001) // End MONITOR dynamic field statistics
(PID.TID 0000.0001) // =======================================================
(PID.TID 0000.0001) // =======================================================
(PID.TID 0000.0001) // Begin OBCS MONITOR field statistics
(PID.TID 0000.0001) // =======================================================
(PID.TID 0000.0001) %MON obc_N_vVel_max               =  -9.7578567179007E-08
(PID.TID 0000.0001) %MON obc_N_vVel_min               =  -9.7578567179009E-08
(PID.TID 0000.0001) %MON obc_N_vVel_mean              =  -9.7578567179007E-08
(PID.TID 0000.0001) %MON obc_N_vVel_sd                =   2.0370096616026E-14
(PID.TID 0000.0001) %MON obc_N_vVel_Int               =  -6.4401854338145E+00
(PID.TID 0000.0001) // =======================================================
(PID.TID 0000.0001) // End OBCS MONITOR field statistics
(PID.TID 0000.0001) // =======================================================
 cg2d: Sum(rhs),rhsMax =   3.01211689612168E+00  4.53051790957794E+02
(PID.TID 0000.0001)      cg2d_init_res =   1.78861948366424E-06
(PID.TID 0000.0001)      cg2d_iters(min,last) =      -1      66
(PID.TID 0000.0001)      cg2d_last_res =   9.20916386611818E-12
(PID.TID 0000.0001) // =======================================================
(PID.TID 0000.0001) // Begin MONITOR dynamic field statistics
(PID.TID 0000.0001) // =======================================================
(PID.TID 0000.0001) %MON time_tsnumber                =                   334
(PID.TID 0000.0001) %MON time_secondsf                =   3.3400000000000E+04
(PID.TID 0000.0001) %MON dynstat_eta_max              =   5.7964091234487E+00
(PID.TID 0000.0001) %MON dynstat_eta_min              =  -1.4177014678949E+01
(PID.TID 0000.0001) %MON dynstat_eta_mean             =  -2.5271202858559E+00
(PID.TID 0000.0001) %MON dynstat_eta_sd               =   4.9419917642847E+00
(PID.TID 0000.0001) %MON dynstat_eta_del2             =   1.9058061644032E-01
(PID.TID 0000.0001) %MON dynstat_uvel_max             =   1.6048648138280E-03
(PID.TID 0000.0001) %MON dynstat_uvel_min             =  -3.4345197985342E-03
(PID.TID 0000.0001) %MON dynstat_uvel_mean            =  -8.3951134458050E-10
(PID.TID 0000.0001) %MON dynstat_uvel_sd              =   1.1068463593620E-04
(PID.TID 0000.0001) %MON dynstat_uvel_del2            =   2.9691075293149E-07
(PID.TID 0000.0001) %MON dynstat_vvel_max             =   3.1536362595102E-03
(PID.TID 0000.0001) %MON dynstat_vvel_min             =  -1.6884427918145E-03
(PID.TID 0000.0001) %MON dynstat_vvel_mean            =  -8.9992160804795E-08
(PID.TID 0000.0001) %MON dynstat_vvel_sd              =   1.0535051471109E-04
(PID.TID 0000.0001) %MON dynstat_vvel_del2            =   3.3323520832665E-07
(PID.TID 0000.0001) %MON dynstat_wvel_max             =   1.6419006047322E-04
(PID.TID 0000.0001) %MON dynstat_wvel_min             =  -8.4534412244137E-05
(PID.TID 0000.0001) %MON dynstat_wvel_mean            =   1.3601121376842E-10
(PID.TID 0000.0001) %MON dynstat_wvel_sd              =   1.7265319109902E-05
(PID.TID 0000.0001) %MON dynstat_wvel_del2            =   8.3901277813827E-08
(PID.TID 0000.0001) %MON dynstat_theta_max            =   1.2000000000000E+00
(PID.TID 0000.0001) %MON dynstat_theta_min            =  -1.0000000000000E+00
(PID.TID 0000.0001) %MON dynstat_theta_mean           =   5.6543708854785E-01
(PID.TID 0000.0001) %MON dynstat_theta_sd             =   8.4905419962066E-01
(PID.TID 0000.0001) %MON dynstat_theta_del2           =   9.9445376845954E-07
(PID.TID 0000.0001) %MON dynstat_salt_max             =   3.4700000000000E+01
(PID.TID 0000.0001) %MON dynstat_salt_min             =   3.4000000000000E+01
(PID.TID 0000.0001) %MON dynstat_salt_mean            =   3.4498088280717E+01
(PID.TID 0000.0001) %MON dynstat_salt_sd              =   2.7015419583516E-01
(PID.TID 0000.0001) %MON dynstat_salt_del2            =   3.2911167476491E-07
(PID.TID 0000.0001) %MON advcfl_uvel_max              =   3.4345197985342E-04
(PID.TID 0000.0001) %MON advcfl_vvel_max              =   3.1536362595102E-04
(PID.TID 0000.0001) %MON advcfl_wvel_max              =   8.2095030236609E-04
(PID.TID 0000.0001) %MON advcfl_W_hf_max              =   8.2095030236609E-04
(PID.TID 0000.0001) %MON pe_b_mean                    =  -6.8283636732243E-01
(PID.TID 0000.0001) %MON ke_max                       =   4.9281075073398E-06
(PID.TID 0000.0001) %MON ke_mean                      =   1.1559582692688E-08
(PID.TID 0000.0001) %MON ke_vol                       =   4.6182888938582E+12
(PID.TID 0000.0001) // =======================================================
(PID.TID 0000.0001) // End MONITOR dynamic field statistics
(PID.TID 0000.0001) // =======================================================
(PID.TID 0000.0001) // =======================================================
(PID.TID 0000.0001) // Begin OBCS MONITOR field statistics
(PID.TID 0000.0001) // =======================================================
(PID.TID 0000.0001) %MON obc_N_vVel_max               =  -9.7648037121534E-08
(PID.TID 0000.0001) %MON obc_N_vVel_min               =  -9.7648037121535E-08
(PID.TID 0000.0001) %MON obc_N_vVel_mean              =  -9.7648037121534E-08
(PID.TID 0000.0001) %MON obc_N_vVel_sd                =  -9.7818752247405E-29
(PID.TID 0000.0001) %MON obc_N_vVel_Int               =  -6.4447704500212E+00
(PID.TID 0000.0001) // =======================================================
(PID.TID 0000.0001) // End OBCS MONITOR field statistics
(PID.TID 0000.0001) // =======================================================
 cg2d: Sum(rhs),rhsMax =   3.01211463475657E+00  4.53051779571828E+02
(PID.TID 0000.0001)      cg2d_init_res =   1.78412498758620E-06
(PID.TID 0000.0001)      cg2d_iters(min,last) =      -1      66
(PID.TID 0000.0001)      cg2d_last_res =   9.25177409097324E-12
(PID.TID 0000.0001) // =======================================================
(PID.TID 0000.0001) // Begin MONITOR dynamic field statistics
(PID.TID 0000.0001) // =======================================================
(PID.TID 0000.0001) %MON time_tsnumber                =                   335
(PID.TID 0000.0001) %MON time_secondsf                =   3.3500000000000E+04
(PID.TID 0000.0001) %MON dynstat_eta_max              =   5.7964118248062E+00
(PID.TID 0000.0001) %MON dynstat_eta_min              =  -1.4177009260927E+01
(PID.TID 0000.0001) %MON dynstat_eta_mean             =  -2.5271183250941E+00
(PID.TID 0000.0001) %MON dynstat_eta_sd               =   4.9419911334222E+00
(PID.TID 0000.0001) %MON dynstat_eta_del2             =   1.9058061744739E-01
(PID.TID 0000.0001) %MON dynstat_uvel_max             =   1.6083914280127E-03
(PID.TID 0000.0001) %MON dynstat_uvel_min             =  -3.4296406332204E-03
(PID.TID 0000.0001) %MON dynstat_uvel_mean            =  -8.8305894184617E-10
(PID.TID 0000.0001) %MON dynstat_uvel_sd              =   1.1104403052321E-04
(PID.TID 0000.0001) %MON dynstat_uvel_del2            =   2.9650331542053E-07
(PID.TID 0000.0001) %MON dynstat_vvel_max             =   3.1631074526803E-03
(PID.TID 0000.0001) %MON dynstat_vvel_min             =  -1.6930996006028E-03
(PID.TID 0000.0001) %MON dynstat_vvel_mean            =  -8.8807752007338E-08
(PID.TID 0000.0001) %MON dynstat_vvel_sd              =   1.0542151329281E-04
(PID.TID 0000.0001) %MON dynstat_vvel_del2            =   3.3265202016171E-07
(PID.TID 0000.0001) %MON dynstat_wvel_max             =   1.6358069334167E-04
(PID.TID 0000.0001) %MON dynstat_wvel_min             =  -8.5036480135336E-05
(PID.TID 0000.0001) %MON dynstat_wvel_mean            =   1.4120079603831E-10
(PID.TID 0000.0001) %MON dynstat_wvel_sd              =   1.7227660459859E-05
(PID.TID 0000.0001) %MON dynstat_wvel_del2            =   8.3640361838254E-08
(PID.TID 0000.0001) %MON dynstat_theta_max            =   1.2000000000000E+00
(PID.TID 0000.0001) %MON dynstat_theta_min            =  -1.0000000000000E+00
(PID.TID 0000.0001) %MON dynstat_theta_mean           =   5.6543688121065E-01
(PID.TID 0000.0001) %MON dynstat_theta_sd             =   8.4905415435521E-01
(PID.TID 0000.0001) %MON dynstat_theta_del2           =   9.9221490171679E-07
(PID.TID 0000.0001) %MON dynstat_salt_max             =   3.4700000000000E+01
(PID.TID 0000.0001) %MON dynstat_salt_min             =   3.4000000000000E+01
(PID.TID 0000.0001) %MON dynstat_salt_mean            =   3.4498088198478E+01
(PID.TID 0000.0001) %MON dynstat_salt_sd              =   2.7015418273310E-01
(PID.TID 0000.0001) %MON dynstat_salt_del2            =   3.2858157277576E-07
(PID.TID 0000.0001) %MON advcfl_uvel_max              =   3.4296406332204E-04
(PID.TID 0000.0001) %MON advcfl_vvel_max              =   3.1631074526803E-04
(PID.TID 0000.0001) %MON advcfl_wvel_max              =   8.1790346670836E-04
(PID.TID 0000.0001) %MON advcfl_W_hf_max              =   8.1790346670836E-04
(PID.TID 0000.0001) %MON pe_b_mean                    =  -6.8283585607008E-01
(PID.TID 0000.0001) %MON ke_max                       =   4.9296855348807E-06
(PID.TID 0000.0001) %MON ke_mean                      =   1.1606159660658E-08
(PID.TID 0000.0001) %MON ke_vol                       =   4.6182889055020E+12
(PID.TID 0000.0001) // =======================================================
(PID.TID 0000.0001) // End MONITOR dynamic field statistics
(PID.TID 0000.0001) // =======================================================
(PID.TID 0000.0001) // =======================================================
(PID.TID 0000.0001) // Begin OBCS MONITOR field statistics
(PID.TID 0000.0001) // =======================================================
(PID.TID 0000.0001) %MON obc_N_vVel_max               =  -9.7007817556532E-08
(PID.TID 0000.0001) %MON obc_N_vVel_min               =  -9.7007817556533E-08
(PID.TID 0000.0001) %MON obc_N_vVel_mean              =  -9.7007817556532E-08
(PID.TID 0000.0001) %MON obc_N_vVel_sd                =   1.3759600911838E-14
(PID.TID 0000.0001) %MON obc_N_vVel_Int               =  -6.4025159587311E+00
(PID.TID 0000.0001) // =======================================================
(PID.TID 0000.0001) // End OBCS MONITOR field statistics
(PID.TID 0000.0001) // =======================================================
 cg2d: Sum(rhs),rhsMax =   3.01211237359636E+00  4.53051768196149E+02
(PID.TID 0000.0001)      cg2d_init_res =   1.77876870078755E-06
(PID.TID 0000.0001)      cg2d_iters(min,last) =      -1      66
(PID.TID 0000.0001)      cg2d_last_res =   9.29986525249809E-12
(PID.TID 0000.0001) // =======================================================
(PID.TID 0000.0001) // Begin MONITOR dynamic field statistics
(PID.TID 0000.0001) // =======================================================
(PID.TID 0000.0001) %MON time_tsnumber                =                   336
(PID.TID 0000.0001) %MON time_secondsf                =   3.3600000000000E+04
(PID.TID 0000.0001) %MON dynstat_eta_max              =   5.7964145248791E+00
(PID.TID 0000.0001) %MON dynstat_eta_min              =  -1.4177003846249E+01
(PID.TID 0000.0001) %MON dynstat_eta_mean             =  -2.5271163645617E+00
(PID.TID 0000.0001) %MON dynstat_eta_sd               =   4.9419905033014E+00
(PID.TID 0000.0001) %MON dynstat_eta_del2             =   1.9058061847310E-01
(PID.TID 0000.0001) %MON dynstat_uvel_max             =   1.6119024215069E-03
(PID.TID 0000.0001) %MON dynstat_uvel_min             =  -3.4247157665788E-03
(PID.TID 0000.0001) %MON dynstat_uvel_mean            =  -9.2528727365883E-10
(PID.TID 0000.0001) %MON dynstat_uvel_sd              =   1.1140416125191E-04
(PID.TID 0000.0001) %MON dynstat_uvel_del2            =   2.9610209575360E-07
(PID.TID 0000.0001) %MON dynstat_vvel_max             =   3.1725294689160E-03
(PID.TID 0000.0001) %MON dynstat_vvel_min             =  -1.6977292781100E-03
(PID.TID 0000.0001) %MON dynstat_vvel_mean            =  -8.6902730911450E-08
(PID.TID 0000.0001) %MON dynstat_vvel_sd              =   1.0549115530743E-04
(PID.TID 0000.0001) %MON dynstat_vvel_del2            =   3.3204878565700E-07
(PID.TID 0000.0001) %MON dynstat_wvel_max             =   1.6296971051986E-04
(PID.TID 0000.0001) %MON dynstat_wvel_min             =  -8.5539785355246E-05
(PID.TID 0000.0001) %MON dynstat_wvel_mean            =   1.4613541885311E-10
(PID.TID 0000.0001) %MON dynstat_wvel_sd              =   1.7187066538161E-05
(PID.TID 0000.0001) %MON dynstat_wvel_del2            =   8.3337319361755E-08
(PID.TID 0000.0001) %MON dynstat_theta_max            =   1.2000000000000E+00
(PID.TID 0000.0001) %MON dynstat_theta_min            =  -1.0000000000000E+00
(PID.TID 0000.0001) %MON dynstat_theta_mean           =   5.6543667373448E-01
(PID.TID 0000.0001) %MON dynstat_theta_sd             =   8.4905410899302E-01
(PID.TID 0000.0001) %MON dynstat_theta_del2           =   9.9002000990599E-07
(PID.TID 0000.0001) %MON dynstat_salt_max             =   3.4700000000000E+01
(PID.TID 0000.0001) %MON dynstat_salt_min             =   3.4000000000000E+01
(PID.TID 0000.0001) %MON dynstat_salt_mean            =   3.4498088116183E+01
(PID.TID 0000.0001) %MON dynstat_salt_sd              =   2.7015416959197E-01
(PID.TID 0000.0001) %MON dynstat_salt_del2            =   3.2806547470121E-07
(PID.TID 0000.0001) %MON advcfl_uvel_max              =   3.4247157665788E-04
(PID.TID 0000.0001) %MON advcfl_vvel_max              =   3.1725294689160E-04
(PID.TID 0000.0001) %MON advcfl_wvel_max              =   8.1484855259930E-04
(PID.TID 0000.0001) %MON advcfl_W_hf_max              =   8.1484855259930E-04
(PID.TID 0000.0001) %MON pe_b_mean                    =  -6.8283534487378E-01
(PID.TID 0000.0001) %MON ke_max                       =   4.9311748028186E-06
(PID.TID 0000.0001) %MON ke_mean                      =   1.1652805710072E-08
(PID.TID 0000.0001) %MON ke_vol                       =   4.6182889171489E+12
(PID.TID 0000.0001) // =======================================================
(PID.TID 0000.0001) // End MONITOR dynamic field statistics
(PID.TID 0000.0001) // =======================================================
(PID.TID 0000.0001) // =======================================================
(PID.TID 0000.0001) // Begin OBCS MONITOR field statistics
(PID.TID 0000.0001) // =======================================================
(PID.TID 0000.0001) %MON obc_N_vVel_max               =  -9.5683325363923E-08
(PID.TID 0000.0001) %MON obc_N_vVel_min               =  -9.5683325363927E-08
(PID.TID 0000.0001) %MON obc_N_vVel_mean              =  -9.5683325363923E-08
(PID.TID 0000.0001) %MON obc_N_vVel_sd                =   2.6734022894623E-14
(PID.TID 0000.0001) %MON obc_N_vVel_Int               =  -6.3150994740189E+00
(PID.TID 0000.0001) // =======================================================
(PID.TID 0000.0001) // End OBCS MONITOR field statistics
(PID.TID 0000.0001) // =======================================================
 cg2d: Sum(rhs),rhsMax =   3.01211011333303E+00  4.53051756851067E+02
(PID.TID 0000.0001)      cg2d_init_res =   1.77267428855411E-06
(PID.TID 0000.0001)      cg2d_iters(min,last) =      -1      66
(PID.TID 0000.0001)      cg2d_last_res =   9.34554673122261E-12
(PID.TID 0000.0001) // =======================================================
(PID.TID 0000.0001) // Begin MONITOR dynamic field statistics
(PID.TID 0000.0001) // =======================================================
(PID.TID 0000.0001) %MON time_tsnumber                =                   337
(PID.TID 0000.0001) %MON time_secondsf                =   3.3700000000000E+04
(PID.TID 0000.0001) %MON dynstat_eta_max              =   5.7964172227707E+00
(PID.TID 0000.0001) %MON dynstat_eta_min              =  -1.4176998436208E+01
(PID.TID 0000.0001) %MON dynstat_eta_mean             =  -2.5271144049526E+00
(PID.TID 0000.0001) %MON dynstat_eta_sd               =   4.9419898740864E+00
(PID.TID 0000.0001) %MON dynstat_eta_del2             =   1.9058061951733E-01
(PID.TID 0000.0001) %MON dynstat_uvel_max             =   1.6153980641924E-03
(PID.TID 0000.0001) %MON dynstat_uvel_min             =  -3.4197458086780E-03
(PID.TID 0000.0001) %MON dynstat_uvel_mean            =  -9.6504176475661E-10
(PID.TID 0000.0001) %MON dynstat_uvel_sd              =   1.1176501287380E-04
(PID.TID 0000.0001) %MON dynstat_uvel_del2            =   2.9570713803172E-07
(PID.TID 0000.0001) %MON dynstat_vvel_max             =   3.1819021096338E-03
(PID.TID 0000.0001) %MON dynstat_vvel_min             =  -1.7023316159301E-03
(PID.TID 0000.0001) %MON dynstat_vvel_mean            =  -8.4343662761160E-08
(PID.TID 0000.0001) %MON dynstat_vvel_sd              =   1.0555967053652E-04
(PID.TID 0000.0001) %MON dynstat_vvel_del2            =   3.3143094573474E-07
(PID.TID 0000.0001) %MON dynstat_wvel_max             =   1.6235715323582E-04
(PID.TID 0000.0001) %MON dynstat_wvel_min             =  -8.6044325877497E-05
(PID.TID 0000.0001) %MON dynstat_wvel_mean            =   1.5065872773807E-10
(PID.TID 0000.0001) %MON dynstat_wvel_sd              =   1.7144165376310E-05
(PID.TID 0000.0001) %MON dynstat_wvel_del2            =   8.3001529312232E-08
(PID.TID 0000.0001) %MON dynstat_theta_max            =   1.2000000000000E+00
(PID.TID 0000.0001) %MON dynstat_theta_min            =  -1.0000000000000E+00
(PID.TID 0000.0001) %MON dynstat_theta_mean           =   5.6543646611798E-01
(PID.TID 0000.0001) %MON dynstat_theta_sd             =   8.4905406355227E-01
(PID.TID 0000.0001) %MON dynstat_theta_del2           =   9.8786344728622E-07
(PID.TID 0000.0001) %MON dynstat_salt_max             =   3.4700000000000E+01
(PID.TID 0000.0001) %MON dynstat_salt_min             =   3.4000000000000E+01
(PID.TID 0000.0001) %MON dynstat_salt_mean            =   3.4498088033832E+01
(PID.TID 0000.0001) %MON dynstat_salt_sd              =   2.7015415641762E-01
(PID.TID 0000.0001) %MON dynstat_salt_del2            =   3.2756166242617E-07
(PID.TID 0000.0001) %MON advcfl_uvel_max              =   3.4197458086780E-04
(PID.TID 0000.0001) %MON advcfl_vvel_max              =   3.1819021096338E-04
(PID.TID 0000.0001) %MON advcfl_wvel_max              =   8.1178576617909E-04
(PID.TID 0000.0001) %MON advcfl_W_hf_max              =   8.1178576617909E-04
(PID.TID 0000.0001) %MON pe_b_mean                    =  -6.8283483386368E-01
(PID.TID 0000.0001) %MON ke_max                       =   4.9325757433704E-06
(PID.TID 0000.0001) %MON ke_mean                      =   1.1699543930138E-08
(PID.TID 0000.0001) %MON ke_vol                       =   4.6182889287945E+12
(PID.TID 0000.0001) // =======================================================
(PID.TID 0000.0001) // End MONITOR dynamic field statistics
(PID.TID 0000.0001) // =======================================================
(PID.TID 0000.0001) // =======================================================
(PID.TID 0000.0001) // Begin OBCS MONITOR field statistics
(PID.TID 0000.0001) // =======================================================
(PID.TID 0000.0001) %MON obc_N_vVel_max               =  -9.3722487147493E-08
(PID.TID 0000.0001) %MON obc_N_vVel_min               =  -9.3722487147495E-08
(PID.TID 0000.0001) %MON obc_N_vVel_mean              =  -9.3722487147495E-08
(PID.TID 0000.0001) %MON obc_N_vVel_sd                =  -5.4589174641294E-28
(PID.TID 0000.0001) %MON obc_N_vVel_Int               =  -6.1856841517347E+00
(PID.TID 0000.0001) // =======================================================
(PID.TID 0000.0001) // End OBCS MONITOR field statistics
(PID.TID 0000.0001) // =======================================================
 cg2d: Sum(rhs),rhsMax =   3.01210785456753E+00  4.53051745555677E+02
(PID.TID 0000.0001)      cg2d_init_res =   1.76607893107488E-06
(PID.TID 0000.0001)      cg2d_iters(min,last) =      -1      66
(PID.TID 0000.0001)      cg2d_last_res =   9.38488708593639E-12
(PID.TID 0000.0001) // =======================================================
(PID.TID 0000.0001) // Begin MONITOR dynamic field statistics
(PID.TID 0000.0001) // =======================================================
(PID.TID 0000.0001) %MON time_tsnumber                =                   338
(PID.TID 0000.0001) %MON time_secondsf                =   3.3800000000000E+04
(PID.TID 0000.0001) %MON dynstat_eta_max              =   5.7964199176940E+00
(PID.TID 0000.0001) %MON dynstat_eta_min              =  -1.4176993031913E+01
(PID.TID 0000.0001) %MON dynstat_eta_mean             =  -2.5271124468774E+00
(PID.TID 0000.0001) %MON dynstat_eta_sd               =   4.9419892458988E+00
(PID.TID 0000.0001) %MON dynstat_eta_del2             =   1.9058062057995E-01
(PID.TID 0000.0001) %MON dynstat_uvel_max             =   1.6188786227254E-03
(PID.TID 0000.0001) %MON dynstat_uvel_min             =  -3.4147313710766E-03
(PID.TID 0000.0001) %MON dynstat_uvel_mean            =  -1.0012569063538E-09
(PID.TID 0000.0001) %MON dynstat_uvel_sd              =   1.1212657031865E-04
(PID.TID 0000.0001) %MON dynstat_uvel_del2            =   2.9531848507385E-07
(PID.TID 0000.0001) %MON dynstat_vvel_max             =   3.1912251709763E-03
(PID.TID 0000.0001) %MON dynstat_vvel_min             =  -1.7069064188808E-03
(PID.TID 0000.0001) %MON dynstat_vvel_mean            =  -8.1218266292622E-08
(PID.TID 0000.0001) %MON dynstat_vvel_sd              =   1.0562739580561E-04
(PID.TID 0000.0001) %MON dynstat_vvel_del2            =   3.3080626015326E-07
(PID.TID 0000.0001) %MON dynstat_wvel_max             =   1.6174306242414E-04
(PID.TID 0000.0001) %MON dynstat_wvel_min             =  -8.6550099671596E-05
(PID.TID 0000.0001) %MON dynstat_wvel_mean            =   1.5462757649026E-10
(PID.TID 0000.0001) %MON dynstat_wvel_sd              =   1.7099887856101E-05
(PID.TID 0000.0001) %MON dynstat_wvel_del2            =   8.2646512163408E-08
(PID.TID 0000.0001) %MON dynstat_theta_max            =   1.2000000000000E+00
(PID.TID 0000.0001) %MON dynstat_theta_min            =  -1.0000000000000E+00
(PID.TID 0000.0001) %MON dynstat_theta_mean           =   5.6543625835894E-01
(PID.TID 0000.0001) %MON dynstat_theta_sd             =   8.4905401806418E-01
(PID.TID 0000.0001) %MON dynstat_theta_del2           =   9.8573747511465E-07
(PID.TID 0000.0001) %MON dynstat_salt_max             =   3.4700000000000E+01
(PID.TID 0000.0001) %MON dynstat_salt_min             =   3.4000000000000E+01
(PID.TID 0000.0001) %MON dynstat_salt_mean            =   3.4498087951424E+01
(PID.TID 0000.0001) %MON dynstat_salt_sd              =   2.7015414321972E-01
(PID.TID 0000.0001) %MON dynstat_salt_del2            =   3.2706781912809E-07
(PID.TID 0000.0001) %MON advcfl_uvel_max              =   3.4147313710766E-04
(PID.TID 0000.0001) %MON advcfl_vvel_max              =   3.1912251709763E-04
(PID.TID 0000.0001) %MON advcfl_wvel_max              =   8.0871531212070E-04
(PID.TID 0000.0001) %MON advcfl_W_hf_max              =   8.0871531212070E-04
(PID.TID 0000.0001) %MON pe_b_mean                    =  -6.8283432314779E-01
(PID.TID 0000.0001) %MON ke_max                       =   4.9338887684415E-06
(PID.TID 0000.0001) %MON ke_mean                      =   1.1746408785773E-08
(PID.TID 0000.0001) %MON ke_vol                       =   4.6182889404346E+12
(PID.TID 0000.0001) // =======================================================
(PID.TID 0000.0001) // End MONITOR dynamic field statistics
(PID.TID 0000.0001) // =======================================================
(PID.TID 0000.0001) // =======================================================
(PID.TID 0000.0001) // Begin OBCS MONITOR field statistics
(PID.TID 0000.0001) // =======================================================
(PID.TID 0000.0001) %MON obc_N_vVel_max               =  -9.1193652681516E-08
(PID.TID 0000.0001) %MON obc_N_vVel_min               =  -9.1193652681518E-08
(PID.TID 0000.0001) %MON obc_N_vVel_mean              =  -9.1193652681516E-08
(PID.TID 0000.0001) %MON obc_N_vVel_sd                =   1.7585035537258E-14
(PID.TID 0000.0001) %MON obc_N_vVel_Int               =  -6.0187810769801E+00
(PID.TID 0000.0001) // =======================================================
(PID.TID 0000.0001) // End OBCS MONITOR field statistics
(PID.TID 0000.0001) // =======================================================
 cg2d: Sum(rhs),rhsMax =   3.01210559780941E+00  4.53051734327675E+02
(PID.TID 0000.0001)      cg2d_init_res =   1.75929730248191E-06
(PID.TID 0000.0001)      cg2d_iters(min,last) =      -1      66
(PID.TID 0000.0001)      cg2d_last_res =   9.42392822920384E-12
(PID.TID 0000.0001) // =======================================================
(PID.TID 0000.0001) // Begin MONITOR dynamic field statistics
(PID.TID 0000.0001) // =======================================================
(PID.TID 0000.0001) %MON time_tsnumber                =                   339
(PID.TID 0000.0001) %MON time_secondsf                =   3.3900000000000E+04
(PID.TID 0000.0001) %MON dynstat_eta_max              =   5.7964226084847E+00
(PID.TID 0000.0001) %MON dynstat_eta_min              =  -1.4176987634225E+01
(PID.TID 0000.0001) %MON dynstat_eta_mean             =  -2.5271104908623E+00
(PID.TID 0000.0001) %MON dynstat_eta_sd               =   4.9419886188072E+00
(PID.TID 0000.0001) %MON dynstat_eta_del2             =   1.9058062166020E-01
(PID.TID 0000.0001) %MON dynstat_uvel_max             =   1.6223443625822E-03
(PID.TID 0000.0001) %MON dynstat_uvel_min             =  -3.4096730670663E-03
(PID.TID 0000.0001) %MON dynstat_uvel_mean            =  -1.0330003544833E-09
(PID.TID 0000.0001) %MON dynstat_uvel_sd              =   1.1248881862797E-04
(PID.TID 0000.0001) %MON dynstat_uvel_del2            =   2.9493617777644E-07
(PID.TID 0000.0001) %MON dynstat_vvel_max             =   3.2004984440972E-03
(PID.TID 0000.0001) %MON dynstat_vvel_min             =  -1.7114535028240E-03
(PID.TID 0000.0001) %MON dynstat_vvel_mean            =  -7.7632383517024E-08
(PID.TID 0000.0001) %MON dynstat_vvel_sd              =   1.0569472986403E-04
(PID.TID 0000.0001) %MON dynstat_vvel_del2            =   3.3018378357201E-07
(PID.TID 0000.0001) %MON dynstat_wvel_max             =   1.6112747891261E-04
(PID.TID 0000.0001) %MON dynstat_wvel_min             =  -8.7057104695294E-05
(PID.TID 0000.0001) %MON dynstat_wvel_mean            =   1.5791702909464E-10
(PID.TID 0000.0001) %MON dynstat_wvel_sd              =   1.7055342440493E-05
(PID.TID 0000.0001) %MON dynstat_wvel_del2            =   8.2288149671610E-08
(PID.TID 0000.0001) %MON dynstat_theta_max            =   1.2000000000000E+00
(PID.TID 0000.0001) %MON dynstat_theta_min            =  -1.0000000000000E+00
(PID.TID 0000.0001) %MON dynstat_theta_mean           =   5.6543605045638E-01
(PID.TID 0000.0001) %MON dynstat_theta_sd             =   8.4905397255796E-01
(PID.TID 0000.0001) %MON dynstat_theta_del2           =   9.8363335782882E-07
(PID.TID 0000.0001) %MON dynstat_salt_max             =   3.4700000000000E+01
(PID.TID 0000.0001) %MON dynstat_salt_min             =   3.4000000000000E+01
(PID.TID 0000.0001) %MON dynstat_salt_mean            =   3.4498087868959E+01
(PID.TID 0000.0001) %MON dynstat_salt_sd              =   2.7015413000741E-01
(PID.TID 0000.0001) %MON dynstat_salt_del2            =   3.2658126663787E-07
(PID.TID 0000.0001) %MON advcfl_uvel_max              =   3.4096730670663E-04
(PID.TID 0000.0001) %MON advcfl_vvel_max              =   3.2004984440972E-04
(PID.TID 0000.0001) %MON advcfl_wvel_max              =   8.0563739456307E-04
(PID.TID 0000.0001) %MON advcfl_W_hf_max              =   8.0563739456307E-04
(PID.TID 0000.0001) %MON pe_b_mean                    =  -6.8283381281384E-01
(PID.TID 0000.0001) %MON ke_max                       =   4.9351142698018E-06
(PID.TID 0000.0001) %MON ke_mean                      =   1.1793441374500E-08
(PID.TID 0000.0001) %MON ke_vol                       =   4.6182889520655E+12
(PID.TID 0000.0001) // =======================================================
(PID.TID 0000.0001) // End MONITOR dynamic field statistics
(PID.TID 0000.0001) // =======================================================
(PID.TID 0000.0001) // =======================================================
(PID.TID 0000.0001) // Begin OBCS MONITOR field statistics
(PID.TID 0000.0001) // =======================================================
(PID.TID 0000.0001) %MON obc_N_vVel_max               =  -8.8183292802347E-08
(PID.TID 0000.0001) %MON obc_N_vVel_min               =  -8.8183292802350E-08
(PID.TID 0000.0001) %MON obc_N_vVel_mean              =  -8.8183292802350E-08
(PID.TID 0000.0001) %MON obc_N_vVel_sd                =  -7.3364064185554E-28
(PID.TID 0000.0001) %MON obc_N_vVel_Int               =  -5.8200973249551E+00
(PID.TID 0000.0001) // =======================================================
(PID.TID 0000.0001) // End OBCS MONITOR field statistics
(PID.TID 0000.0001) // =======================================================
 cg2d: Sum(rhs),rhsMax =   3.01210334343806E+00  4.53051723183472E+02
(PID.TID 0000.0001)      cg2d_init_res =   1.75266790380666E-06
(PID.TID 0000.0001)      cg2d_iters(min,last) =      -1      66
(PID.TID 0000.0001)      cg2d_last_res =   9.48035770400022E-12
(PID.TID 0000.0001) // =======================================================
(PID.TID 0000.0001) // Begin MONITOR dynamic field statistics
(PID.TID 0000.0001) // =======================================================
(PID.TID 0000.0001) %MON time_tsnumber                =                   340
(PID.TID 0000.0001) %MON time_secondsf                =   3.4000000000000E+04
(PID.TID 0000.0001) %MON dynstat_eta_max              =   5.7964252952485E+00
(PID.TID 0000.0001) %MON dynstat_eta_min              =  -1.4176982243782E+01
(PID.TID 0000.0001) %MON dynstat_eta_mean             =  -2.5271085373172E+00
(PID.TID 0000.0001) %MON dynstat_eta_sd               =   4.9419879928295E+00
(PID.TID 0000.0001) %MON dynstat_eta_del2             =   1.9058062275716E-01
(PID.TID 0000.0001) %MON dynstat_uvel_max             =   1.6257955474348E-03
(PID.TID 0000.0001) %MON dynstat_uvel_min             =  -3.4045715102782E-03
(PID.TID 0000.0001) %MON dynstat_uvel_mean            =  -1.0595037874133E-09
(PID.TID 0000.0001) %MON dynstat_uvel_sd              =   1.1285174287439E-04
(PID.TID 0000.0001) %MON dynstat_uvel_del2            =   2.9456025448679E-07
(PID.TID 0000.0001) %MON dynstat_vvel_max             =   3.2097217178721E-03
(PID.TID 0000.0001) %MON dynstat_vvel_min             =  -1.7159726923808E-03
(PID.TID 0000.0001) %MON dynstat_vvel_mean            =  -7.3706386066839E-08
(PID.TID 0000.0001) %MON dynstat_vvel_sd              =   1.0576208123208E-04
(PID.TID 0000.0001) %MON dynstat_vvel_del2            =   3.2957269518321E-07
(PID.TID 0000.0001) %MON dynstat_wvel_max             =   1.6051044358401E-04
(PID.TID 0000.0001) %MON dynstat_wvel_min             =  -8.7565338239619E-05
(PID.TID 0000.0001) %MON dynstat_wvel_mean            =   1.6042578988571E-10
(PID.TID 0000.0001) %MON dynstat_wvel_sd              =   1.7011668451182E-05
(PID.TID 0000.0001) %MON dynstat_wvel_del2            =   8.1942607665918E-08
(PID.TID 0000.0001) %MON dynstat_theta_max            =   1.2000000000000E+00
(PID.TID 0000.0001) %MON dynstat_theta_min            =  -1.0000000000000E+00
(PID.TID 0000.0001) %MON dynstat_theta_mean           =   5.6543584240889E-01
(PID.TID 0000.0001) %MON dynstat_theta_sd             =   8.4905392701295E-01
(PID.TID 0000.0001) %MON dynstat_theta_del2           =   9.8154264493141E-07
(PID.TID 0000.0001) %MON dynstat_salt_max             =   3.4700000000000E+01
(PID.TID 0000.0001) %MON dynstat_salt_min             =   3.4000000000000E+01
(PID.TID 0000.0001) %MON dynstat_salt_mean            =   3.4498087786436E+01
(PID.TID 0000.0001) %MON dynstat_salt_sd              =   2.7015411677428E-01
(PID.TID 0000.0001) %MON dynstat_salt_del2            =   3.2609945043569E-07
(PID.TID 0000.0001) %MON advcfl_uvel_max              =   3.4045715102782E-04
(PID.TID 0000.0001) %MON advcfl_vvel_max              =   3.2097217178721E-04
(PID.TID 0000.0001) %MON advcfl_wvel_max              =   8.0255221792003E-04
(PID.TID 0000.0001) %MON advcfl_W_hf_max              =   8.0255221792003E-04
(PID.TID 0000.0001) %MON pe_b_mean                    =  -6.8283330292264E-01
(PID.TID 0000.0001) %MON ke_max                       =   4.9362526239059E-06
(PID.TID 0000.0001) %MON ke_mean                      =   1.1840683919205E-08
(PID.TID 0000.0001) %MON ke_vol                       =   4.6182889636843E+12
(PID.TID 0000.0001) // =======================================================
(PID.TID 0000.0001) // End MONITOR dynamic field statistics
(PID.TID 0000.0001) // =======================================================
(PID.TID 0000.0001) // =======================================================
(PID.TID 0000.0001) // Begin OBCS MONITOR field statistics
(PID.TID 0000.0001) // =======================================================
(PID.TID 0000.0001) %MON obc_N_vVel_max               =  -8.4793155867081E-08
(PID.TID 0000.0001) %MON obc_N_vVel_min               =  -8.4793155867083E-08
(PID.TID 0000.0001) %MON obc_N_vVel_mean              =  -8.4793155867083E-08
(PID.TID 0000.0001) %MON obc_N_vVel_sd                =  -4.5911704683863E-28
(PID.TID 0000.0001) %MON obc_N_vVel_Int               =  -5.5963482872275E+00
(PID.TID 0000.0001) // =======================================================
(PID.TID 0000.0001) // End OBCS MONITOR field statistics
(PID.TID 0000.0001) // =======================================================
 cg2d: Sum(rhs),rhsMax =   3.01210109167225E+00  4.53051712138233E+02
(PID.TID 0000.0001)      cg2d_init_res =   1.74653049446208E-06
(PID.TID 0000.0001)      cg2d_iters(min,last) =      -1      66
(PID.TID 0000.0001)      cg2d_last_res =   9.55429715807966E-12
(PID.TID 0000.0001) // =======================================================
(PID.TID 0000.0001) // Begin MONITOR dynamic field statistics
(PID.TID 0000.0001) // =======================================================
(PID.TID 0000.0001) %MON time_tsnumber                =                   341
(PID.TID 0000.0001) %MON time_secondsf                =   3.4100000000000E+04
(PID.TID 0000.0001) %MON dynstat_eta_max              =   5.7964279777573E+00
(PID.TID 0000.0001) %MON dynstat_eta_min              =  -1.4176976860911E+01
(PID.TID 0000.0001) %MON dynstat_eta_mean             =  -2.5271065865103E+00
(PID.TID 0000.0001) %MON dynstat_eta_sd               =   4.9419873679197E+00
(PID.TID 0000.0001) %MON dynstat_eta_del2             =   1.9058062386892E-01
(PID.TID 0000.0001) %MON dynstat_uvel_max             =   1.6292324366063E-03
(PID.TID 0000.0001) %MON dynstat_uvel_min             =  -3.3994273148810E-03
(PID.TID 0000.0001) %MON dynstat_uvel_mean            =  -1.0801892306378E-09
(PID.TID 0000.0001) %MON dynstat_uvel_sd              =   1.1321532811268E-04
(PID.TID 0000.0001) %MON dynstat_uvel_del2            =   2.9419075049650E-07
(PID.TID 0000.0001) %MON dynstat_vvel_max             =   3.2188947804679E-03
(PID.TID 0000.0001) %MON dynstat_vvel_min             =  -1.7204638186099E-03
(PID.TID 0000.0001) %MON dynstat_vvel_mean            =  -6.9571098340011E-08
(PID.TID 0000.0001) %MON dynstat_vvel_sd              =   1.0582981597324E-04
(PID.TID 0000.0001) %MON dynstat_vvel_del2            =   3.2898113789977E-07
(PID.TID 0000.0001) %MON dynstat_wvel_max             =   1.5989199718446E-04
(PID.TID 0000.0001) %MON dynstat_wvel_min             =  -8.8074797606925E-05
(PID.TID 0000.0001) %MON dynstat_wvel_mean            =   1.6207662678248E-10
(PID.TID 0000.0001) %MON dynstat_wvel_sd              =   1.6969887299916E-05
(PID.TID 0000.0001) %MON dynstat_wvel_del2            =   8.1624229493198E-08
(PID.TID 0000.0001) %MON dynstat_theta_max            =   1.2000000000000E+00
(PID.TID 0000.0001) %MON dynstat_theta_min            =  -1.0000000000000E+00
(PID.TID 0000.0001) %MON dynstat_theta_mean           =   5.6543563421324E-01
(PID.TID 0000.0001) %MON dynstat_theta_sd             =   8.4905388139085E-01
(PID.TID 0000.0001) %MON dynstat_theta_del2           =   9.7945791755091E-07
(PID.TID 0000.0001) %MON dynstat_salt_max             =   3.4700000000000E+01
(PID.TID 0000.0001) %MON dynstat_salt_min             =   3.4000000000000E+01
(PID.TID 0000.0001) %MON dynstat_salt_mean            =   3.4498087703854E+01
(PID.TID 0000.0001) %MON dynstat_salt_sd              =   2.7015410350758E-01
(PID.TID 0000.0001) %MON dynstat_salt_del2            =   3.2562013952744E-07
(PID.TID 0000.0001) %MON advcfl_uvel_max              =   3.3994273148810E-04
(PID.TID 0000.0001) %MON advcfl_vvel_max              =   3.2188947804679E-04
(PID.TID 0000.0001) %MON advcfl_wvel_max              =   7.9945998592228E-04
(PID.TID 0000.0001) %MON advcfl_W_hf_max              =   7.9945998592228E-04
(PID.TID 0000.0001) %MON pe_b_mean                    =  -6.8283279350038E-01
(PID.TID 0000.0001) %MON ke_max                       =   4.9373041969540E-06
(PID.TID 0000.0001) %MON ke_mean                      =   1.1888174237391E-08
(PID.TID 0000.0001) %MON ke_vol                       =   4.6182889752883E+12
(PID.TID 0000.0001) // =======================================================
(PID.TID 0000.0001) // End MONITOR dynamic field statistics
(PID.TID 0000.0001) // =======================================================
(PID.TID 0000.0001) // =======================================================
(PID.TID 0000.0001) // Begin OBCS MONITOR field statistics
(PID.TID 0000.0001) // =======================================================
(PID.TID 0000.0001) %MON obc_N_vVel_max               =  -8.1136670494687E-08
(PID.TID 0000.0001) %MON obc_N_vVel_min               =  -8.1136670494689E-08
(PID.TID 0000.0001) %MON obc_N_vVel_mean              =  -8.1136670494689E-08
(PID.TID 0000.0001) %MON obc_N_vVel_sd                =  -1.4357268475022E-28
(PID.TID 0000.0001) %MON obc_N_vVel_Int               =  -5.3550202526495E+00
(PID.TID 0000.0001) // =======================================================
(PID.TID 0000.0001) // End OBCS MONITOR field statistics
(PID.TID 0000.0001) // =======================================================
 cg2d: Sum(rhs),rhsMax =   3.01209884258268E+00  4.53051701205908E+02
(PID.TID 0000.0001)      cg2d_init_res =   1.74120668274679E-06
(PID.TID 0000.0001)      cg2d_iters(min,last) =      -1      66
(PID.TID 0000.0001)      cg2d_last_res =   9.62835941988274E-12
(PID.TID 0000.0001) // =======================================================
(PID.TID 0000.0001) // Begin MONITOR dynamic field statistics
(PID.TID 0000.0001) // =======================================================
(PID.TID 0000.0001) %MON time_tsnumber                =                   342
(PID.TID 0000.0001) %MON time_secondsf                =   3.4200000000000E+04
(PID.TID 0000.0001) %MON dynstat_eta_max              =   5.7964306560163E+00
(PID.TID 0000.0001) %MON dynstat_eta_min              =  -1.4176971485614E+01
(PID.TID 0000.0001) %MON dynstat_eta_mean             =  -2.5271046385786E+00
(PID.TID 0000.0001) %MON dynstat_eta_sd               =   4.9419867440086E+00
(PID.TID 0000.0001) %MON dynstat_eta_del2             =   1.9058062499498E-01
(PID.TID 0000.0001) %MON dynstat_uvel_max             =   1.6326552863362E-03
(PID.TID 0000.0001) %MON dynstat_uvel_min             =  -3.3942410975201E-03
(PID.TID 0000.0001) %MON dynstat_uvel_mean            =  -1.0946646161172E-09
(PID.TID 0000.0001) %MON dynstat_uvel_sd              =   1.1357955933112E-04
(PID.TID 0000.0001) %MON dynstat_uvel_del2            =   2.9382769775576E-07
(PID.TID 0000.0001) %MON dynstat_vvel_max             =   3.2280174210388E-03
(PID.TID 0000.0001) %MON dynstat_vvel_min             =  -1.7249267141271E-03
(PID.TID 0000.0001) %MON dynstat_vvel_mean            =  -6.5363432843017E-08
(PID.TID 0000.0001) %MON dynstat_vvel_sd              =   1.0589821270892E-04
(PID.TID 0000.0001) %MON dynstat_vvel_del2            =   3.2841521885085E-07
(PID.TID 0000.0001) %MON dynstat_wvel_max             =   1.5927218060769E-04
(PID.TID 0000.0001) %MON dynstat_wvel_min             =  -8.8585480523768E-05
(PID.TID 0000.0001) %MON dynstat_wvel_mean            =   1.6281999302502E-10
(PID.TID 0000.0001) %MON dynstat_wvel_sd              =   1.6930771925022E-05
(PID.TID 0000.0001) %MON dynstat_wvel_del2            =   8.1343682302174E-08
(PID.TID 0000.0001) %MON dynstat_theta_max            =   1.2000000000000E+00
(PID.TID 0000.0001) %MON dynstat_theta_min            =  -1.0000000000000E+00
(PID.TID 0000.0001) %MON dynstat_theta_mean           =   5.6543542586659E-01
(PID.TID 0000.0001) %MON dynstat_theta_sd             =   8.4905383564947E-01
(PID.TID 0000.0001) %MON dynstat_theta_del2           =   9.7737416962194E-07
(PID.TID 0000.0001) %MON dynstat_salt_max             =   3.4700000000000E+01
(PID.TID 0000.0001) %MON dynstat_salt_min             =   3.4000000000000E+01
(PID.TID 0000.0001) %MON dynstat_salt_mean            =   3.4498087621211E+01
(PID.TID 0000.0001) %MON dynstat_salt_sd              =   2.7015409019404E-01
(PID.TID 0000.0001) %MON dynstat_salt_del2            =   3.2514180943033E-07
(PID.TID 0000.0001) %MON advcfl_uvel_max              =   3.3942410975201E-04
(PID.TID 0000.0001) %MON advcfl_vvel_max              =   3.2280174210388E-04
(PID.TID 0000.0001) %MON advcfl_wvel_max              =   7.9636090303845E-04
(PID.TID 0000.0001) %MON advcfl_W_hf_max              =   7.9636090303845E-04
(PID.TID 0000.0001) %MON pe_b_mean                    =  -6.8283228454656E-01
(PID.TID 0000.0001) %MON ke_max                       =   4.9382693474831E-06
(PID.TID 0000.0001) %MON ke_mean                      =   1.1935940957352E-08
(PID.TID 0000.0001) %MON ke_vol                       =   4.6182889868761E+12
(PID.TID 0000.0001) // =======================================================
(PID.TID 0000.0001) // End MONITOR dynamic field statistics
(PID.TID 0000.0001) // =======================================================
(PID.TID 0000.0001) // =======================================================
(PID.TID 0000.0001) // Begin OBCS MONITOR field statistics
(PID.TID 0000.0001) // =======================================================
(PID.TID 0000.0001) %MON obc_N_vVel_max               =  -7.7335406009729E-08
(PID.TID 0000.0001) %MON obc_N_vVel_min               =  -7.7335406009729E-08
(PID.TID 0000.0001) %MON obc_N_vVel_mean              =  -7.7335406009729E-08
(PID.TID 0000.0001) %MON obc_N_vVel_sd                =  -3.1554436208840E-29
(PID.TID 0000.0001) %MON obc_N_vVel_Int               =  -5.1041367966421E+00
(PID.TID 0000.0001) // =======================================================
(PID.TID 0000.0001) // End OBCS MONITOR field statistics
(PID.TID 0000.0001) // =======================================================
 cg2d: Sum(rhs),rhsMax =   3.01209659608691E+00  4.53051690399220E+02
(PID.TID 0000.0001)      cg2d_init_res =   1.73690127922838E-06
(PID.TID 0000.0001)      cg2d_iters(min,last) =      -1      66
(PID.TID 0000.0001)      cg2d_last_res =   9.69709297639530E-12
(PID.TID 0000.0001) // =======================================================
(PID.TID 0000.0001) // Begin MONITOR dynamic field statistics
(PID.TID 0000.0001) // =======================================================
(PID.TID 0000.0001) %MON time_tsnumber                =                   343
(PID.TID 0000.0001) %MON time_secondsf                =   3.4300000000000E+04
(PID.TID 0000.0001) %MON dynstat_eta_max              =   5.7964333302290E+00
(PID.TID 0000.0001) %MON dynstat_eta_min              =  -1.4176966117583E+01
(PID.TID 0000.0001) %MON dynstat_eta_mean             =  -2.5271026935239E+00
(PID.TID 0000.0001) %MON dynstat_eta_sd               =   4.9419861209745E+00
(PID.TID 0000.0001) %MON dynstat_eta_del2             =   1.9058062613432E-01
(PID.TID 0000.0001) %MON dynstat_uvel_max             =   1.6360643502988E-03
(PID.TID 0000.0001) %MON dynstat_uvel_min             =  -3.3890134753385E-03
(PID.TID 0000.0001) %MON dynstat_uvel_mean            =  -1.1027376405733E-09
(PID.TID 0000.0001) %MON dynstat_uvel_sd              =   1.1394442142675E-04
(PID.TID 0000.0001) %MON dynstat_uvel_del2            =   2.9347112527060E-07
(PID.TID 0000.0001) %MON dynstat_vvel_max             =   3.2370894326963E-03
(PID.TID 0000.0001) %MON dynstat_vvel_min             =  -1.7293612124316E-03
(PID.TID 0000.0001) %MON dynstat_vvel_mean            =  -6.1221902639469E-08
(PID.TID 0000.0001) %MON dynstat_vvel_sd              =   1.0596742991596E-04
(PID.TID 0000.0001) %MON dynstat_vvel_del2            =   3.2787829828520E-07
(PID.TID 0000.0001) %MON dynstat_wvel_max             =   1.5865103476891E-04
(PID.TID 0000.0001) %MON dynstat_wvel_min             =  -8.9097384624663E-05
(PID.TID 0000.0001) %MON dynstat_wvel_mean            =   1.6263991352614E-10
(PID.TID 0000.0001) %MON dynstat_wvel_sd              =   1.6894751345898E-05
(PID.TID 0000.0001) %MON dynstat_wvel_del2            =   8.1106613746141E-08
(PID.TID 0000.0001) %MON dynstat_theta_max            =   1.2000000000000E+00
(PID.TID 0000.0001) %MON dynstat_theta_min            =  -1.0000000000000E+00
(PID.TID 0000.0001) %MON dynstat_theta_mean           =   5.6543521736655E-01
(PID.TID 0000.0001) %MON dynstat_theta_sd             =   8.4905378975786E-01
(PID.TID 0000.0001) %MON dynstat_theta_del2           =   9.7528850107436E-07
(PID.TID 0000.0001) %MON dynstat_salt_max             =   3.4700000000000E+01
(PID.TID 0000.0001) %MON dynstat_salt_min             =   3.4000000000000E+01
(PID.TID 0000.0001) %MON dynstat_salt_mean            =   3.4498087538507E+01
(PID.TID 0000.0001) %MON dynstat_salt_sd              =   2.7015407682366E-01
(PID.TID 0000.0001) %MON dynstat_salt_del2            =   3.2466364416004E-07
(PID.TID 0000.0001) %MON advcfl_uvel_max              =   3.3890134753385E-04
(PID.TID 0000.0001) %MON advcfl_vvel_max              =   3.2370894326963E-04
(PID.TID 0000.0001) %MON advcfl_wvel_max              =   7.9325517384454E-04
(PID.TID 0000.0001) %MON advcfl_W_hf_max              =   7.9325517384454E-04
(PID.TID 0000.0001) %MON pe_b_mean                    =  -6.8283177603266E-01
(PID.TID 0000.0001) %MON ke_max                       =   4.9391484329387E-06
(PID.TID 0000.0001) %MON ke_mean                      =   1.1984000020997E-08
(PID.TID 0000.0001) %MON ke_vol                       =   4.6182889984468E+12
(PID.TID 0000.0001) // =======================================================
(PID.TID 0000.0001) // End MONITOR dynamic field statistics
(PID.TID 0000.0001) // =======================================================
(PID.TID 0000.0001) // =======================================================
(PID.TID 0000.0001) // Begin OBCS MONITOR field statistics
(PID.TID 0000.0001) // =======================================================
(PID.TID 0000.0001) %MON obc_N_vVel_max               =  -7.3515277016432E-08
(PID.TID 0000.0001) %MON obc_N_vVel_min               =  -7.3515277016433E-08
(PID.TID 0000.0001) %MON obc_N_vVel_mean              =  -7.3515277016432E-08
(PID.TID 0000.0001) %MON obc_N_vVel_sd                =  -5.3642541555029E-29
(PID.TID 0000.0001) %MON obc_N_vVel_Int               =  -4.8520082830845E+00
(PID.TID 0000.0001) // =======================================================
(PID.TID 0000.0001) // End OBCS MONITOR field statistics
(PID.TID 0000.0001) // =======================================================
 cg2d: Sum(rhs),rhsMax =   3.01209435194234E+00  4.53051679729845E+02
(PID.TID 0000.0001)      cg2d_init_res =   1.73371221014764E-06
(PID.TID 0000.0001)      cg2d_iters(min,last) =      -1      66
(PID.TID 0000.0001)      cg2d_last_res =   9.76268594774405E-12
(PID.TID 0000.0001) // =======================================================
(PID.TID 0000.0001) // Begin MONITOR dynamic field statistics
(PID.TID 0000.0001) // =======================================================
(PID.TID 0000.0001) %MON time_tsnumber                =                   344
(PID.TID 0000.0001) %MON time_secondsf                =   3.4400000000000E+04
(PID.TID 0000.0001) %MON dynstat_eta_max              =   5.7964360008215E+00
(PID.TID 0000.0001) %MON dynstat_eta_min              =  -1.4176960756210E+01
(PID.TID 0000.0001) %MON dynstat_eta_mean             =  -2.5271007512079E+00
(PID.TID 0000.0001) %MON dynstat_eta_sd               =   4.9419854986491E+00
(PID.TID 0000.0001) %MON dynstat_eta_del2             =   1.9058062728581E-01
(PID.TID 0000.0001) %MON dynstat_uvel_max             =   1.6394598790814E-03
(PID.TID 0000.0001) %MON dynstat_uvel_min             =  -3.3837450688345E-03
(PID.TID 0000.0001) %MON dynstat_uvel_mean            =  -1.1043991122798E-09
(PID.TID 0000.0001) %MON dynstat_uvel_sd              =   1.1430989911579E-04
(PID.TID 0000.0001) %MON dynstat_uvel_del2            =   2.9312105837563E-07
(PID.TID 0000.0001) %MON dynstat_vvel_max             =   3.2461106152075E-03
(PID.TID 0000.0001) %MON dynstat_vvel_min             =  -1.7337671474342E-03
(PID.TID 0000.0001) %MON dynstat_vvel_mean            =  -5.7282016741015E-08
(PID.TID 0000.0001) %MON dynstat_vvel_sd              =   1.0603748975720E-04
(PID.TID 0000.0001) %MON dynstat_vvel_del2            =   3.2737065136387E-07
(PID.TID 0000.0001) %MON dynstat_wvel_max             =   1.5802859993963E-04
(PID.TID 0000.0001) %MON dynstat_wvel_min             =  -8.9610507397229E-05
(PID.TID 0000.0001) %MON dynstat_wvel_mean            =   1.6155011131649E-10
(PID.TID 0000.0001) %MON dynstat_wvel_sd              =   1.6861862196979E-05
(PID.TID 0000.0001) %MON dynstat_wvel_del2            =   8.0913002579841E-08
(PID.TID 0000.0001) %MON dynstat_theta_max            =   1.2000000000000E+00
(PID.TID 0000.0001) %MON dynstat_theta_min            =  -1.0000000000000E+00
(PID.TID 0000.0001) %MON dynstat_theta_mean           =   5.6543500871056E-01
(PID.TID 0000.0001) %MON dynstat_theta_sd             =   8.4905374374340E-01
(PID.TID 0000.0001) %MON dynstat_theta_del2           =   9.7320154385800E-07
(PID.TID 0000.0001) %MON dynstat_salt_max             =   3.4700000000000E+01
(PID.TID 0000.0001) %MON dynstat_salt_min             =   3.4000000000000E+01
(PID.TID 0000.0001) %MON dynstat_salt_mean            =   3.4498087455740E+01
(PID.TID 0000.0001) %MON dynstat_salt_sd              =   2.7015406340499E-01
(PID.TID 0000.0001) %MON dynstat_salt_del2            =   3.2418587103337E-07
(PID.TID 0000.0001) %MON advcfl_uvel_max              =   3.3837450688345E-04
(PID.TID 0000.0001) %MON advcfl_vvel_max              =   3.2461106152075E-04
(PID.TID 0000.0001) %MON advcfl_wvel_max              =   7.9014299969815E-04
(PID.TID 0000.0001) %MON advcfl_W_hf_max              =   7.9014299969815E-04
(PID.TID 0000.0001) %MON pe_b_mean                    =  -6.8283126790144E-01
(PID.TID 0000.0001) %MON ke_max                       =   4.9399418159592E-06
(PID.TID 0000.0001) %MON ke_mean                      =   1.2032352918824E-08
(PID.TID 0000.0001) %MON ke_vol                       =   4.6182890100005E+12
(PID.TID 0000.0001) // =======================================================
(PID.TID 0000.0001) // End MONITOR dynamic field statistics
(PID.TID 0000.0001) // =======================================================
(PID.TID 0000.0001) // =======================================================
(PID.TID 0000.0001) // Begin OBCS MONITOR field statistics
(PID.TID 0000.0001) // =======================================================
(PID.TID 0000.0001) %MON obc_N_vVel_max               =  -6.9801927998202E-08
(PID.TID 0000.0001) %MON obc_N_vVel_min               =  -6.9801927998202E-08
(PID.TID 0000.0001) %MON obc_N_vVel_mean              =  -6.9801927998202E-08
(PID.TID 0000.0001) %MON obc_N_vVel_sd                =   1.4043333874307E-14
(PID.TID 0000.0001) %MON obc_N_vVel_Int               =  -4.6069272478813E+00
(PID.TID 0000.0001) // =======================================================
(PID.TID 0000.0001) // End OBCS MONITOR field statistics
(PID.TID 0000.0001) // =======================================================
 cg2d: Sum(rhs),rhsMax =   3.01209210975208E+00  4.53051669208363E+02
(PID.TID 0000.0001)      cg2d_init_res =   1.73160303845198E-06
(PID.TID 0000.0001)      cg2d_iters(min,last) =      -1      66
(PID.TID 0000.0001)      cg2d_last_res =   9.83625852720971E-12
(PID.TID 0000.0001) // =======================================================
(PID.TID 0000.0001) // Begin MONITOR dynamic field statistics
(PID.TID 0000.0001) // =======================================================
(PID.TID 0000.0001) %MON time_tsnumber                =                   345
(PID.TID 0000.0001) %MON time_secondsf                =   3.4500000000000E+04
(PID.TID 0000.0001) %MON dynstat_eta_max              =   5.7964386684014E+00
(PID.TID 0000.0001) %MON dynstat_eta_min              =  -1.4176955400622E+01
(PID.TID 0000.0001) %MON dynstat_eta_mean             =  -2.5270988113565E+00
(PID.TID 0000.0001) %MON dynstat_eta_sd               =   4.9419848768393E+00
(PID.TID 0000.0001) %MON dynstat_eta_del2             =   1.9058062844901E-01
(PID.TID 0000.0001) %MON dynstat_uvel_max             =   1.6428421206669E-03
(PID.TID 0000.0001) %MON dynstat_uvel_min             =  -3.3784364997695E-03
(PID.TID 0000.0001) %MON dynstat_uvel_mean            =  -1.0998528167987E-09
(PID.TID 0000.0001) %MON dynstat_uvel_sd              =   1.1467597690441E-04
(PID.TID 0000.0001) %MON dynstat_uvel_del2            =   2.9277751899298E-07
(PID.TID 0000.0001) %MON dynstat_vvel_max             =   3.2550807773282E-03
(PID.TID 0000.0001) %MON dynstat_vvel_min             =  -1.7381443498659E-03
(PID.TID 0000.0001) %MON dynstat_vvel_mean            =  -5.3671780803726E-08
(PID.TID 0000.0001) %MON dynstat_vvel_sd              =   1.0610827979724E-04
(PID.TID 0000.0001) %MON dynstat_vvel_del2            =   3.2688954067408E-07
(PID.TID 0000.0001) %MON dynstat_wvel_max             =   1.5740491574892E-04
(PID.TID 0000.0001) %MON dynstat_wvel_min             =  -9.0124846429216E-05
(PID.TID 0000.0001) %MON dynstat_wvel_mean            =   1.5959438648460E-10
(PID.TID 0000.0001) %MON dynstat_wvel_sd              =   1.6831753370716E-05
(PID.TID 0000.0001) %MON dynstat_wvel_del2            =   8.0757295581847E-08
(PID.TID 0000.0001) %MON dynstat_theta_max            =   1.2000000000000E+00
(PID.TID 0000.0001) %MON dynstat_theta_min            =  -1.0000000000000E+00
(PID.TID 0000.0001) %MON dynstat_theta_mean           =   5.6543479989590E-01
(PID.TID 0000.0001) %MON dynstat_theta_sd             =   8.4905369762176E-01
(PID.TID 0000.0001) %MON dynstat_theta_del2           =   9.7111673927593E-07
(PID.TID 0000.0001) %MON dynstat_salt_max             =   3.4700000000000E+01
(PID.TID 0000.0001) %MON dynstat_salt_min             =   3.4000000000000E+01
(PID.TID 0000.0001) %MON dynstat_salt_mean            =   3.4498087372911E+01
(PID.TID 0000.0001) %MON dynstat_salt_sd              =   2.7015404994293E-01
(PID.TID 0000.0001) %MON dynstat_salt_del2            =   3.2370955645718E-07
(PID.TID 0000.0001) %MON advcfl_uvel_max              =   3.3784364997695E-04
(PID.TID 0000.0001) %MON advcfl_vvel_max              =   3.2550807773282E-04
(PID.TID 0000.0001) %MON advcfl_wvel_max              =   7.8702457874460E-04
(PID.TID 0000.0001) %MON advcfl_W_hf_max              =   7.8702457874460E-04
(PID.TID 0000.0001) %MON pe_b_mean                    =  -6.8283076006945E-01
(PID.TID 0000.0001) %MON ke_max                       =   4.9406498675692E-06
(PID.TID 0000.0001) %MON ke_mean                      =   1.2080986821460E-08
(PID.TID 0000.0001) %MON ke_vol                       =   4.6182890215378E+12
(PID.TID 0000.0001) // =======================================================
(PID.TID 0000.0001) // End MONITOR dynamic field statistics
(PID.TID 0000.0001) // =======================================================
(PID.TID 0000.0001) // =======================================================
(PID.TID 0000.0001) // Begin OBCS MONITOR field statistics
(PID.TID 0000.0001) // =======================================================
(PID.TID 0000.0001) %MON obc_N_vVel_max               =  -6.6316676431819E-08
(PID.TID 0000.0001) %MON obc_N_vVel_min               =  -6.6316676431821E-08
(PID.TID 0000.0001) %MON obc_N_vVel_mean              =  -6.6316676431821E-08
(PID.TID 0000.0001) %MON obc_N_vVel_sd                =  -1.1832913578315E-28
(PID.TID 0000.0001) %MON obc_N_vVel_Int               =  -4.3769006445002E+00
(PID.TID 0000.0001) // =======================================================
(PID.TID 0000.0001) // End OBCS MONITOR field statistics
(PID.TID 0000.0001) // =======================================================
 cg2d: Sum(rhs),rhsMax =   3.01208986898863E+00  4.53051658844318E+02
(PID.TID 0000.0001)      cg2d_init_res =   1.73042229020907E-06
(PID.TID 0000.0001)      cg2d_iters(min,last) =      -1      66
(PID.TID 0000.0001)      cg2d_last_res =   9.92870433323463E-12
(PID.TID 0000.0001) // =======================================================
(PID.TID 0000.0001) // Begin MONITOR dynamic field statistics
(PID.TID 0000.0001) // =======================================================
(PID.TID 0000.0001) %MON time_tsnumber                =                   346
(PID.TID 0000.0001) %MON time_secondsf                =   3.4600000000000E+04
(PID.TID 0000.0001) %MON dynstat_eta_max              =   5.7964413337383E+00
(PID.TID 0000.0001) %MON dynstat_eta_min              =  -1.4176950049690E+01
(PID.TID 0000.0001) %MON dynstat_eta_mean             =  -2.5270968735805E+00
(PID.TID 0000.0001) %MON dynstat_eta_sd               =   4.9419842553086E+00
(PID.TID 0000.0001) %MON dynstat_eta_del2             =   1.9058062962277E-01
(PID.TID 0000.0001) %MON dynstat_uvel_max             =   1.6462113204252E-03
(PID.TID 0000.0001) %MON dynstat_uvel_min             =  -3.3730883921577E-03
(PID.TID 0000.0001) %MON dynstat_uvel_mean            =  -1.0895264187491E-09
(PID.TID 0000.0001) %MON dynstat_uvel_sd              =   1.1504263908531E-04
(PID.TID 0000.0001) %MON dynstat_uvel_del2            =   2.9244052545385E-07
(PID.TID 0000.0001) %MON dynstat_vvel_max             =   3.2639997381079E-03
(PID.TID 0000.0001) %MON dynstat_vvel_min             =  -1.7424926450325E-03
(PID.TID 0000.0001) %MON dynstat_vvel_mean            =  -5.0507444298107E-08
(PID.TID 0000.0001) %MON dynstat_vvel_sd              =   1.0617957196052E-04
(PID.TID 0000.0001) %MON dynstat_vvel_del2            =   3.2642967796240E-07
(PID.TID 0000.0001) %MON dynstat_wvel_max             =   1.5678002125828E-04
(PID.TID 0000.0001) %MON dynstat_wvel_min             =  -9.0640399200792E-05
(PID.TID 0000.0001) %MON dynstat_wvel_mean            =   1.5684451909803E-10
(PID.TID 0000.0001) %MON dynstat_wvel_sd              =   1.6803741690779E-05
(PID.TID 0000.0001) %MON dynstat_wvel_del2            =   8.0629293246965E-08
(PID.TID 0000.0001) %MON dynstat_theta_max            =   1.2000000000000E+00
(PID.TID 0000.0001) %MON dynstat_theta_min            =  -1.0000000000000E+00
(PID.TID 0000.0001) %MON dynstat_theta_mean           =   5.6543459092090E-01
(PID.TID 0000.0001) %MON dynstat_theta_sd             =   8.4905365139861E-01
(PID.TID 0000.0001) %MON dynstat_theta_del2           =   9.6904042920937E-07
(PID.TID 0000.0001) %MON dynstat_salt_max             =   3.4700000000000E+01
(PID.TID 0000.0001) %MON dynstat_salt_min             =   3.4000000000000E+01
(PID.TID 0000.0001) %MON dynstat_salt_mean            =   3.4498087290017E+01
(PID.TID 0000.0001) %MON dynstat_salt_sd              =   2.7015403643914E-01
(PID.TID 0000.0001) %MON dynstat_salt_del2            =   3.2323665157238E-07
(PID.TID 0000.0001) %MON advcfl_uvel_max              =   3.3730883921577E-04
(PID.TID 0000.0001) %MON advcfl_vvel_max              =   3.2639997381079E-04
(PID.TID 0000.0001) %MON advcfl_wvel_max              =   7.8390010629139E-04
(PID.TID 0000.0001) %MON advcfl_W_hf_max              =   7.8390010629139E-04
(PID.TID 0000.0001) %MON pe_b_mean                    =  -6.8283025243158E-01
(PID.TID 0000.0001) %MON ke_max                       =   4.9412729711365E-06
(PID.TID 0000.0001) %MON ke_mean                      =   1.2129876543725E-08
(PID.TID 0000.0001) %MON ke_vol                       =   4.6182890330605E+12
(PID.TID 0000.0001) // =======================================================
(PID.TID 0000.0001) // End MONITOR dynamic field statistics
(PID.TID 0000.0001) // =======================================================
(PID.TID 0000.0001) // =======================================================
(PID.TID 0000.0001) // Begin OBCS MONITOR field statistics
(PID.TID 0000.0001) // =======================================================
(PID.TID 0000.0001) %MON obc_N_vVel_max               =  -6.3172457151992E-08
(PID.TID 0000.0001) %MON obc_N_vVel_min               =  -6.3172457151994E-08
(PID.TID 0000.0001) %MON obc_N_vVel_mean              =  -6.3172457151994E-08
(PID.TID 0000.0001) %MON obc_N_vVel_sd                =  -3.5104310282335E-28
(PID.TID 0000.0001) %MON obc_N_vVel_Int               =  -4.1693821720316E+00
(PID.TID 0000.0001) // =======================================================
(PID.TID 0000.0001) // End OBCS MONITOR field statistics
(PID.TID 0000.0001) // =======================================================
 cg2d: Sum(rhs),rhsMax =   3.01208762899566E+00  4.53051648646297E+02
(PID.TID 0000.0001)      cg2d_init_res =   1.72990401195426E-06
(PID.TID 0000.0001)      cg2d_iters(min,last) =      -1      67
(PID.TID 0000.0001)      cg2d_last_res =   8.34529405818463E-12
(PID.TID 0000.0001) // =======================================================
(PID.TID 0000.0001) // Begin MONITOR dynamic field statistics
(PID.TID 0000.0001) // =======================================================
(PID.TID 0000.0001) %MON time_tsnumber                =                   347
(PID.TID 0000.0001) %MON time_secondsf                =   3.4700000000000E+04
(PID.TID 0000.0001) %MON dynstat_eta_max              =   5.7964439971298E+00
(PID.TID 0000.0001) %MON dynstat_eta_min              =  -1.4176944701377E+01
(PID.TID 0000.0001) %MON dynstat_eta_mean             =  -2.5270949373770E+00
(PID.TID 0000.0001) %MON dynstat_eta_sd               =   4.9419836338076E+00
(PID.TID 0000.0001) %MON dynstat_eta_del2             =   1.9058063080727E-01
(PID.TID 0000.0001) %MON dynstat_uvel_max             =   1.6495677194612E-03
(PID.TID 0000.0001) %MON dynstat_uvel_min             =  -3.3677013502584E-03
(PID.TID 0000.0001) %MON dynstat_uvel_mean            =  -1.0740211793120E-09
(PID.TID 0000.0001) %MON dynstat_uvel_sd              =   1.1540986971718E-04
(PID.TID 0000.0001) %MON dynstat_uvel_del2            =   2.9211009278926E-07
(PID.TID 0000.0001) %MON dynstat_vvel_max             =   3.2728673320293E-03
(PID.TID 0000.0001) %MON dynstat_vvel_min             =  -1.7468118682435E-03
(PID.TID 0000.0001) %MON dynstat_vvel_mean            =  -4.7890193094262E-08
(PID.TID 0000.0001) %MON dynstat_vvel_sd              =   1.0625105588475E-04
(PID.TID 0000.0001) %MON dynstat_vvel_del2            =   3.2598400558149E-07
(PID.TID 0000.0001) %MON dynstat_wvel_max             =   1.5615396851702E-04
(PID.TID 0000.0001) %MON dynstat_wvel_min             =  -9.1157170436000E-05
(PID.TID 0000.0001) %MON dynstat_wvel_mean            =   1.5339259271879E-10
(PID.TID 0000.0001) %MON dynstat_wvel_sd              =   1.6776910283620E-05
(PID.TID 0000.0001) %MON dynstat_wvel_del2            =   8.0515641240758E-08
(PID.TID 0000.0001) %MON dynstat_theta_max            =   1.2000000000000E+00
(PID.TID 0000.0001) %MON dynstat_theta_min            =  -1.0000000000000E+00
(PID.TID 0000.0001) %MON dynstat_theta_mean           =   5.6543438178367E-01
(PID.TID 0000.0001) %MON dynstat_theta_sd             =   8.4905360509566E-01
(PID.TID 0000.0001) %MON dynstat_theta_del2           =   9.6698028403901E-07
(PID.TID 0000.0001) %MON dynstat_salt_max             =   3.4700000000000E+01
(PID.TID 0000.0001) %MON dynstat_salt_min             =   3.4000000000000E+01
(PID.TID 0000.0001) %MON dynstat_salt_mean            =   3.4498087207058E+01
(PID.TID 0000.0001) %MON dynstat_salt_sd              =   2.7015402290048E-01
(PID.TID 0000.0001) %MON dynstat_salt_del2            =   3.2276948101246E-07
(PID.TID 0000.0001) %MON advcfl_uvel_max              =   3.3677013502584E-04
(PID.TID 0000.0001) %MON advcfl_vvel_max              =   3.2728673320293E-04
(PID.TID 0000.0001) %MON advcfl_wvel_max              =   7.8076984258510E-04
(PID.TID 0000.0001) %MON advcfl_W_hf_max              =   7.8076984258511E-04
(PID.TID 0000.0001) %MON pe_b_mean                    =  -6.8282974486186E-01
(PID.TID 0000.0001) %MON ke_max                       =   4.9418115247556E-06
(PID.TID 0000.0001) %MON ke_mean                      =   1.2178988043838E-08
(PID.TID 0000.0001) %MON ke_vol                       =   4.6182890445709E+12
(PID.TID 0000.0001) // =======================================================
(PID.TID 0000.0001) // End MONITOR dynamic field statistics
(PID.TID 0000.0001) // =======================================================
(PID.TID 0000.0001) // =======================================================
(PID.TID 0000.0001) // Begin OBCS MONITOR field statistics
(PID.TID 0000.0001) // =======================================================
(PID.TID 0000.0001) %MON obc_N_vVel_max               =  -6.0470220801862E-08
(PID.TID 0000.0001) %MON obc_N_vVel_min               =  -6.0470220801864E-08
(PID.TID 0000.0001) %MON obc_N_vVel_mean              =  -6.0470220801864E-08
(PID.TID 0000.0001) %MON obc_N_vVel_sd                =  -4.2125172338802E-28
(PID.TID 0000.0001) %MON obc_N_vVel_Int               =  -3.9910345729230E+00
(PID.TID 0000.0001) // =======================================================
(PID.TID 0000.0001) // End OBCS MONITOR field statistics
(PID.TID 0000.0001) // =======================================================
 cg2d: Sum(rhs),rhsMax =   3.01208538899827E+00  4.53051638621736E+02
(PID.TID 0000.0001)      cg2d_init_res =   1.72965889749273E-06
(PID.TID 0000.0001)      cg2d_iters(min,last) =      -1      67
(PID.TID 0000.0001)      cg2d_last_res =   8.42078961379686E-12
(PID.TID 0000.0001) // =======================================================
(PID.TID 0000.0001) // Begin MONITOR dynamic field statistics
(PID.TID 0000.0001) // =======================================================
(PID.TID 0000.0001) %MON time_tsnumber                =                   348
(PID.TID 0000.0001) %MON time_secondsf                =   3.4800000000000E+04
(PID.TID 0000.0001) %MON dynstat_eta_max              =   5.7964466608040E+00
(PID.TID 0000.0001) %MON dynstat_eta_min              =  -1.4176939355707E+01
(PID.TID 0000.0001) %MON dynstat_eta_mean             =  -2.5270930021375E+00
(PID.TID 0000.0001) %MON dynstat_eta_sd               =   4.9419830120542E+00
(PID.TID 0000.0001) %MON dynstat_eta_del2             =   1.9058063200022E-01
(PID.TID 0000.0001) %MON dynstat_uvel_max             =   1.6529115617416E-03
(PID.TID 0000.0001) %MON dynstat_uvel_min             =  -3.3622760682019E-03
(PID.TID 0000.0001) %MON dynstat_uvel_mean            =  -1.0541817849487E-09
(PID.TID 0000.0001) %MON dynstat_uvel_sd              =   1.1577765259736E-04
(PID.TID 0000.0001) %MON dynstat_uvel_del2            =   2.9178623304172E-07
(PID.TID 0000.0001) %MON dynstat_vvel_max             =   3.2816833969704E-03
(PID.TID 0000.0001) %MON dynstat_vvel_min             =  -1.7511017759055E-03
(PID.TID 0000.0001) %MON dynstat_vvel_mean            =  -4.5901134858992E-08
(PID.TID 0000.0001) %MON dynstat_vvel_sd              =   1.0632238194977E-04
(PID.TID 0000.0001) %MON dynstat_vvel_del2            =   3.2554468589983E-07
(PID.TID 0000.0001) %MON dynstat_wvel_max             =   1.5552675470300E-04
(PID.TID 0000.0001) %MON dynstat_wvel_min             =  -9.1675136463367E-05
(PID.TID 0000.0001) %MON dynstat_wvel_mean            =   1.4939174945864E-10
(PID.TID 0000.0001) %MON dynstat_wvel_sd              =   1.6750235461276E-05
(PID.TID 0000.0001) %MON dynstat_wvel_del2            =   8.0401695852912E-08
(PID.TID 0000.0001) %MON dynstat_theta_max            =   1.2000000000000E+00
(PID.TID 0000.0001) %MON dynstat_theta_min            =  -1.0000000000000E+00
(PID.TID 0000.0001) %MON dynstat_theta_mean           =   5.6543417248121E-01
(PID.TID 0000.0001) %MON dynstat_theta_sd             =   8.4905355869815E-01
(PID.TID 0000.0001) %MON dynstat_theta_del2           =   9.6494417321462E-07
(PID.TID 0000.0001) %MON dynstat_salt_max             =   3.4700000000000E+01
(PID.TID 0000.0001) %MON dynstat_salt_min             =   3.4000000000000E+01
(PID.TID 0000.0001) %MON dynstat_salt_mean            =   3.4498087124034E+01
(PID.TID 0000.0001) %MON dynstat_salt_sd              =   2.7015400932227E-01
(PID.TID 0000.0001) %MON dynstat_salt_del2            =   3.2231045331654E-07
(PID.TID 0000.0001) %MON advcfl_uvel_max              =   3.3622760682019E-04
(PID.TID 0000.0001) %MON advcfl_vvel_max              =   3.2816833969704E-04
(PID.TID 0000.0001) %MON advcfl_wvel_max              =   7.7763377351499E-04
(PID.TID 0000.0001) %MON advcfl_W_hf_max              =   7.7763377351499E-04
(PID.TID 0000.0001) %MON pe_b_mean                    =  -6.8282923721691E-01
(PID.TID 0000.0001) %MON ke_max                       =   4.9422659489332E-06
(PID.TID 0000.0001) %MON ke_mean                      =   1.2228282964677E-08
(PID.TID 0000.0001) %MON ke_vol                       =   4.6182890560720E+12
(PID.TID 0000.0001) // =======================================================
(PID.TID 0000.0001) // End MONITOR dynamic field statistics
(PID.TID 0000.0001) // =======================================================
(PID.TID 0000.0001) // =======================================================
(PID.TID 0000.0001) // Begin OBCS MONITOR field statistics
(PID.TID 0000.0001) // =======================================================
(PID.TID 0000.0001) %MON obc_N_vVel_max               =  -5.8296856082263E-08
(PID.TID 0000.0001) %MON obc_N_vVel_min               =  -5.8296856082265E-08
(PID.TID 0000.0001) %MON obc_N_vVel_mean              =  -5.8296856082263E-08
(PID.TID 0000.0001) %MON obc_N_vVel_sd                =   1.8353299608773E-14
(PID.TID 0000.0001) %MON obc_N_vVel_Int               =  -3.8475925014294E+00
(PID.TID 0000.0001) // =======================================================
(PID.TID 0000.0001) // End OBCS MONITOR field statistics
(PID.TID 0000.0001) // =======================================================
 cg2d: Sum(rhs),rhsMax =   3.01208314815396E+00  4.53051628777213E+02
(PID.TID 0000.0001)      cg2d_init_res =   1.72943736145632E-06
(PID.TID 0000.0001)      cg2d_iters(min,last) =      -1      67
(PID.TID 0000.0001)      cg2d_last_res =   8.51474947454147E-12
(PID.TID 0000.0001) // =======================================================
(PID.TID 0000.0001) // Begin MONITOR dynamic field statistics
(PID.TID 0000.0001) // =======================================================
(PID.TID 0000.0001) %MON time_tsnumber                =                   349
(PID.TID 0000.0001) %MON time_secondsf                =   3.4900000000000E+04
(PID.TID 0000.0001) %MON dynstat_eta_max              =   5.7964493253662E+00
(PID.TID 0000.0001) %MON dynstat_eta_min              =  -1.4176934010166E+01
(PID.TID 0000.0001) %MON dynstat_eta_mean             =  -2.5270910671917E+00
(PID.TID 0000.0001) %MON dynstat_eta_sd               =   4.9419823897770E+00
(PID.TID 0000.0001) %MON dynstat_eta_del2             =   1.9058063320236E-01
(PID.TID 0000.0001) %MON dynstat_uvel_max             =   1.6562430811788E-03
(PID.TID 0000.0001) %MON dynstat_uvel_min             =  -3.3568131086545E-03
(PID.TID 0000.0001) %MON dynstat_uvel_mean            =  -1.0309221342140E-09
(PID.TID 0000.0001) %MON dynstat_uvel_sd              =   1.1614597126347E-04
(PID.TID 0000.0001) %MON dynstat_uvel_del2            =   2.9146895482411E-07
(PID.TID 0000.0001) %MON dynstat_vvel_max             =   3.2904477908344E-03
(PID.TID 0000.0001) %MON dynstat_vvel_min             =  -1.7553622298951E-03
(PID.TID 0000.0001) %MON dynstat_vvel_mean            =  -4.4601067636074E-08
(PID.TID 0000.0001) %MON dynstat_vvel_sd              =   1.0639320807661E-04
(PID.TID 0000.0001) %MON dynstat_vvel_del2            =   3.2510415812017E-07
(PID.TID 0000.0001) %MON dynstat_wvel_max             =   1.5489846051066E-04
(PID.TID 0000.0001) %MON dynstat_wvel_min             =  -9.2194314696004E-05
(PID.TID 0000.0001) %MON dynstat_wvel_mean            =   1.4491338848129E-10
(PID.TID 0000.0001) %MON dynstat_wvel_sd              =   1.6722723846319E-05
(PID.TID 0000.0001) %MON dynstat_wvel_del2            =   8.0273491869811E-08
(PID.TID 0000.0001) %MON dynstat_theta_max            =   1.2000000000000E+00
(PID.TID 0000.0001) %MON dynstat_theta_min            =  -1.0000000000000E+00
(PID.TID 0000.0001) %MON dynstat_theta_mean           =   5.6543396301142E-01
(PID.TID 0000.0001) %MON dynstat_theta_sd             =   8.4905351218543E-01
(PID.TID 0000.0001) %MON dynstat_theta_del2           =   9.6293904698505E-07
(PID.TID 0000.0001) %MON dynstat_salt_max             =   3.4700000000000E+01
(PID.TID 0000.0001) %MON dynstat_salt_min             =   3.4000000000000E+01
(PID.TID 0000.0001) %MON dynstat_salt_mean            =   3.4498087040944E+01
(PID.TID 0000.0001) %MON dynstat_salt_sd              =   2.7015399569774E-01
(PID.TID 0000.0001) %MON dynstat_salt_del2            =   3.2186167552375E-07
(PID.TID 0000.0001) %MON advcfl_uvel_max              =   3.3568131086545E-04
(PID.TID 0000.0001) %MON advcfl_vvel_max              =   3.2904477908344E-04
(PID.TID 0000.0001) %MON advcfl_wvel_max              =   7.7449230255331E-04
(PID.TID 0000.0001) %MON advcfl_W_hf_max              =   7.7449230255331E-04
(PID.TID 0000.0001) %MON pe_b_mean                    =  -6.8282872934298E-01
(PID.TID 0000.0001) %MON ke_max                       =   4.9426366582060E-06
(PID.TID 0000.0001) %MON ke_mean                      =   1.2277723599498E-08
(PID.TID 0000.0001) %MON ke_vol                       =   4.6182890675673E+12
(PID.TID 0000.0001) // =======================================================
(PID.TID 0000.0001) // End MONITOR dynamic field statistics
(PID.TID 0000.0001) // =======================================================
(PID.TID 0000.0001) // =======================================================
(PID.TID 0000.0001) // Begin OBCS MONITOR field statistics
(PID.TID 0000.0001) // =======================================================
(PID.TID 0000.0001) %MON obc_N_vVel_max               =  -5.6715542226991E-08
(PID.TID 0000.0001) %MON obc_N_vVel_min               =  -5.6715542226992E-08
(PID.TID 0000.0001) %MON obc_N_vVel_mean              =  -5.6715542226992E-08
(PID.TID 0000.0001) %MON obc_N_vVel_sd                =  -1.8459345182172E-28
(PID.TID 0000.0001) %MON obc_N_vVel_Int               =  -3.7432257869815E+00
(PID.TID 0000.0001) // =======================================================
(PID.TID 0000.0001) // End OBCS MONITOR field statistics
(PID.TID 0000.0001) // =======================================================
 cg2d: Sum(rhs),rhsMax =   3.01208090555296E+00  4.53051619117990E+02
(PID.TID 0000.0001)      cg2d_init_res =   1.72886106413804E-06
(PID.TID 0000.0001)      cg2d_iters(min,last) =      -1      67
(PID.TID 0000.0001)      cg2d_last_res =   8.59568514684577E-12
(PID.TID 0000.0001) // =======================================================
(PID.TID 0000.0001) // Begin MONITOR dynamic field statistics
(PID.TID 0000.0001) // =======================================================
(PID.TID 0000.0001) %MON time_tsnumber                =                   350
(PID.TID 0000.0001) %MON time_secondsf                =   3.5000000000000E+04
(PID.TID 0000.0001) %MON dynstat_eta_max              =   5.7964519919703E+00
(PID.TID 0000.0001) %MON dynstat_eta_min              =  -1.4176928663057E+01
(PID.TID 0000.0001) %MON dynstat_eta_mean             =  -2.5270891318058E+00
(PID.TID 0000.0001) %MON dynstat_eta_sd               =   4.9419817666983E+00
(PID.TID 0000.0001) %MON dynstat_eta_del2             =   1.9058063441307E-01
(PID.TID 0000.0001) %MON dynstat_uvel_max             =   1.6595625137157E-03
(PID.TID 0000.0001) %MON dynstat_uvel_min             =  -3.3513131252134E-03
(PID.TID 0000.0001) %MON dynstat_uvel_mean            =  -1.0052895670125E-09
(PID.TID 0000.0001) %MON dynstat_uvel_sd              =   1.1651480900368E-04
(PID.TID 0000.0001) %MON dynstat_uvel_del2            =   2.9115826372316E-07
(PID.TID 0000.0001) %MON dynstat_vvel_max             =   3.2991603936789E-03
(PID.TID 0000.0001) %MON dynstat_vvel_min             =  -1.7595929965033E-03
(PID.TID 0000.0001) %MON dynstat_vvel_mean            =  -4.4027937914388E-08
(PID.TID 0000.0001) %MON dynstat_vvel_sd              =   1.0646324381579E-04
(PID.TID 0000.0001) %MON dynstat_vvel_del2            =   3.2465612449764E-07
(PID.TID 0000.0001) %MON dynstat_wvel_max             =   1.5426910840672E-04
(PID.TID 0000.0001) %MON dynstat_wvel_min             =  -9.2714696655998E-05
(PID.TID 0000.0001) %MON dynstat_wvel_mean            =   1.4016315819716E-10
(PID.TID 0000.0001) %MON dynstat_wvel_sd              =   1.6693541986629E-05
(PID.TID 0000.0001) %MON dynstat_wvel_del2            =   8.0119547526445E-08
(PID.TID 0000.0001) %MON dynstat_theta_max            =   1.2000000000000E+00
(PID.TID 0000.0001) %MON dynstat_theta_min            =  -1.0000000000000E+00
(PID.TID 0000.0001) %MON dynstat_theta_mean           =   5.6543375337162E-01
(PID.TID 0000.0001) %MON dynstat_theta_sd             =   8.4905346558541E-01
(PID.TID 0000.0001) %MON dynstat_theta_del2           =   9.6097047109014E-07
(PID.TID 0000.0001) %MON dynstat_salt_max             =   3.4700000000000E+01
(PID.TID 0000.0001) %MON dynstat_salt_min             =   3.4000000000000E+01
(PID.TID 0000.0001) %MON dynstat_salt_mean            =   3.4498086957785E+01
(PID.TID 0000.0001) %MON dynstat_salt_sd              =   2.7015398203577E-01
(PID.TID 0000.0001) %MON dynstat_salt_del2            =   3.2142479664066E-07
(PID.TID 0000.0001) %MON advcfl_uvel_max              =   3.3513131252134E-04
(PID.TID 0000.0001) %MON advcfl_vvel_max              =   3.2991603936789E-04
(PID.TID 0000.0001) %MON advcfl_wvel_max              =   7.7134554203360E-04
(PID.TID 0000.0001) %MON advcfl_W_hf_max              =   7.7134554203360E-04
(PID.TID 0000.0001) %MON pe_b_mean                    =  -6.8282822107864E-01
(PID.TID 0000.0001) %MON ke_max                       =   4.9429241232764E-06
(PID.TID 0000.0001) %MON ke_mean                      =   1.2327277590086E-08
(PID.TID 0000.0001) %MON ke_vol                       =   4.6182890790609E+12
(PID.TID 0000.0001) // =======================================================
(PID.TID 0000.0001) // End MONITOR dynamic field statistics
(PID.TID 0000.0001) // =======================================================
(PID.TID 0000.0001) // =======================================================
(PID.TID 0000.0001) // Begin OBCS MONITOR field statistics
(PID.TID 0000.0001) // =======================================================
(PID.TID 0000.0001) %MON obc_N_vVel_max               =  -5.5779196996226E-08
(PID.TID 0000.0001) %MON obc_N_vVel_min               =  -5.5779196996228E-08
(PID.TID 0000.0001) %MON obc_N_vVel_mean              =  -5.5779196996228E-08
(PID.TID 0000.0001) %MON obc_N_vVel_sd                =  -1.5895547240203E-28
(PID.TID 0000.0001) %MON obc_N_vVel_Int               =  -3.6814270017510E+00
(PID.TID 0000.0001) // =======================================================
(PID.TID 0000.0001) // End OBCS MONITOR field statistics
(PID.TID 0000.0001) // =======================================================
 cg2d: Sum(rhs),rhsMax =   3.01207866026601E+00  4.53051609648060E+02
(PID.TID 0000.0001)      cg2d_init_res =   1.72767681278339E-06
(PID.TID 0000.0001)      cg2d_iters(min,last) =      -1      67
(PID.TID 0000.0001)      cg2d_last_res =   8.64810049713409E-12
(PID.TID 0000.0001) // =======================================================
(PID.TID 0000.0001) // Begin MONITOR dynamic field statistics
(PID.TID 0000.0001) // =======================================================
(PID.TID 0000.0001) %MON time_tsnumber                =                   351
(PID.TID 0000.0001) %MON time_secondsf                =   3.5100000000000E+04
(PID.TID 0000.0001) %MON dynstat_eta_max              =   5.7964546618158E+00
(PID.TID 0000.0001) %MON dynstat_eta_min              =  -1.4176923312666E+01
(PID.TID 0000.0001) %MON dynstat_eta_mean             =  -2.5270871952224E+00
(PID.TID 0000.0001) %MON dynstat_eta_sd               =   4.9419811425572E+00
(PID.TID 0000.0001) %MON dynstat_eta_del2             =   1.9058063563241E-01
(PID.TID 0000.0001) %MON dynstat_uvel_max             =   1.6628700933072E-03
(PID.TID 0000.0001) %MON dynstat_uvel_min             =  -3.3457767547589E-03
(PID.TID 0000.0001) %MON dynstat_uvel_mean            =  -9.7839965470743E-10
(PID.TID 0000.0001) %MON dynstat_uvel_sd              =   1.1688414883953E-04
(PID.TID 0000.0001) %MON dynstat_uvel_del2            =   2.9085416200793E-07
(PID.TID 0000.0001) %MON dynstat_vvel_max             =   3.3078210974749E-03
(PID.TID 0000.0001) %MON dynstat_vvel_min             =  -1.7637938525992E-03
(PID.TID 0000.0001) %MON dynstat_vvel_mean            =  -4.4195080326331E-08
(PID.TID 0000.0001) %MON dynstat_vvel_sd              =   1.0653228619632E-04
(PID.TID 0000.0001) %MON dynstat_vvel_del2            =   3.2419633613475E-07
(PID.TID 0000.0001) %MON dynstat_wvel_max             =   1.5363873456197E-04
(PID.TID 0000.0001) %MON dynstat_wvel_min             =  -9.3236279150668E-05
(PID.TID 0000.0001) %MON dynstat_wvel_mean            =   1.3529110354267E-10
(PID.TID 0000.0001) %MON dynstat_wvel_sd              =   1.6662120938662E-05
(PID.TID 0000.0001) %MON dynstat_wvel_del2            =   7.9932284067350E-08
(PID.TID 0000.0001) %MON dynstat_theta_max            =   1.2000000000000E+00
(PID.TID 0000.0001) %MON dynstat_theta_min            =  -1.0000000000000E+00
(PID.TID 0000.0001) %MON dynstat_theta_mean           =   5.6543354355943E-01
(PID.TID 0000.0001) %MON dynstat_theta_sd             =   8.4905341892709E-01
(PID.TID 0000.0001) %MON dynstat_theta_del2           =   9.5904193403876E-07
(PID.TID 0000.0001) %MON dynstat_salt_max             =   3.4700000000000E+01
(PID.TID 0000.0001) %MON dynstat_salt_min             =   3.4000000000000E+01
(PID.TID 0000.0001) %MON dynstat_salt_mean            =   3.4498086874558E+01
(PID.TID 0000.0001) %MON dynstat_salt_sd              =   2.7015396834535E-01
(PID.TID 0000.0001) %MON dynstat_salt_del2            =   3.2100088114624E-07
(PID.TID 0000.0001) %MON advcfl_uvel_max              =   3.3457767547589E-04
(PID.TID 0000.0001) %MON advcfl_vvel_max              =   3.3078210974749E-04
(PID.TID 0000.0001) %MON advcfl_wvel_max              =   7.6819367280985E-04
(PID.TID 0000.0001) %MON advcfl_W_hf_max              =   7.6819367280985E-04
(PID.TID 0000.0001) %MON pe_b_mean                    =  -6.8282771226242E-01
(PID.TID 0000.0001) %MON ke_max                       =   4.9431288226684E-06
(PID.TID 0000.0001) %MON ke_mean                      =   1.2376921764020E-08
(PID.TID 0000.0001) %MON ke_vol                       =   4.6182890905571E+12
(PID.TID 0000.0001) // =======================================================
(PID.TID 0000.0001) // End MONITOR dynamic field statistics
(PID.TID 0000.0001) // =======================================================
(PID.TID 0000.0001) // =======================================================
(PID.TID 0000.0001) // Begin OBCS MONITOR field statistics
(PID.TID 0000.0001) // =======================================================
(PID.TID 0000.0001) %MON obc_N_vVel_max               =  -5.5512227134569E-08
(PID.TID 0000.0001) %MON obc_N_vVel_min               =  -5.5512227134569E-08
(PID.TID 0000.0001) %MON obc_N_vVel_mean              =  -5.5512227134569E-08
(PID.TID 0000.0001) %MON obc_N_vVel_sd                =  -4.2204058429324E-29
(PID.TID 0000.0001) %MON obc_N_vVel_Int               =  -3.6638069908815E+00
(PID.TID 0000.0001) // =======================================================
(PID.TID 0000.0001) // End OBCS MONITOR field statistics
(PID.TID 0000.0001) // =======================================================
 cg2d: Sum(rhs),rhsMax =   3.01207641137515E+00  4.53051600370079E+02
(PID.TID 0000.0001)      cg2d_init_res =   1.72571273330785E-06
(PID.TID 0000.0001)      cg2d_iters(min,last) =      -1      67
(PID.TID 0000.0001)      cg2d_last_res =   8.67232353179909E-12
(PID.TID 0000.0001) // =======================================================
(PID.TID 0000.0001) // Begin MONITOR dynamic field statistics
(PID.TID 0000.0001) // =======================================================
(PID.TID 0000.0001) %MON time_tsnumber                =                   352
(PID.TID 0000.0001) %MON time_secondsf                =   3.5200000000000E+04
(PID.TID 0000.0001) %MON dynstat_eta_max              =   5.7964573360640E+00
(PID.TID 0000.0001) %MON dynstat_eta_min              =  -1.4176917957233E+01
(PID.TID 0000.0001) %MON dynstat_eta_mean             =  -2.5270852566861E+00
(PID.TID 0000.0001) %MON dynstat_eta_sd               =   4.9419805171184E+00
(PID.TID 0000.0001) %MON dynstat_eta_del2             =   1.9058063686071E-01
(PID.TID 0000.0001) %MON dynstat_uvel_max             =   1.6661660522868E-03
(PID.TID 0000.0001) %MON dynstat_uvel_min             =  -3.3402046330122E-03
(PID.TID 0000.0001) %MON dynstat_uvel_mean            =  -9.5141396283702E-10
(PID.TID 0000.0001) %MON dynstat_uvel_sd              =   1.1725397354849E-04
(PID.TID 0000.0001) %MON dynstat_uvel_del2            =   2.9055664908156E-07
(PID.TID 0000.0001) %MON dynstat_vvel_max             =   3.3164298102717E-03
(PID.TID 0000.0001) %MON dynstat_vvel_min             =  -1.7679645649569E-03
(PID.TID 0000.0001) %MON dynstat_vvel_mean            =  -4.5091299636561E-08
(PID.TID 0000.0001) %MON dynstat_vvel_sd              =   1.0660024316777E-04
(PID.TID 0000.0001) %MON dynstat_vvel_del2            =   3.2372308919726E-07
(PID.TID 0000.0001) %MON dynstat_wvel_max             =   1.5300737505415E-04
(PID.TID 0000.0001) %MON dynstat_wvel_min             =  -9.3759059757774E-05
(PID.TID 0000.0001) %MON dynstat_wvel_mean            =   1.3045714599290E-10
(PID.TID 0000.0001) %MON dynstat_wvel_sd              =   1.6628224428625E-05
(PID.TID 0000.0001) %MON dynstat_wvel_del2            =   7.9708906087411E-08
(PID.TID 0000.0001) %MON dynstat_theta_max            =   1.2000000000000E+00
(PID.TID 0000.0001) %MON dynstat_theta_min            =  -1.0000000000000E+00
(PID.TID 0000.0001) %MON dynstat_theta_mean           =   5.6543333357314E-01
(PID.TID 0000.0001) %MON dynstat_theta_sd             =   8.4905337221431E-01
(PID.TID 0000.0001) %MON dynstat_theta_del2           =   9.5715444911925E-07
(PID.TID 0000.0001) %MON dynstat_salt_max             =   3.4700000000000E+01
(PID.TID 0000.0001) %MON dynstat_salt_min             =   3.4000000000000E+01
(PID.TID 0000.0001) %MON dynstat_salt_mean            =   3.4498086791262E+01
(PID.TID 0000.0001) %MON dynstat_salt_sd              =   2.7015395462786E-01
(PID.TID 0000.0001) %MON dynstat_salt_del2            =   3.2059018727261E-07
(PID.TID 0000.0001) %MON advcfl_uvel_max              =   3.3402046330122E-04
(PID.TID 0000.0001) %MON advcfl_vvel_max              =   3.3164298102717E-04
(PID.TID 0000.0001) %MON advcfl_wvel_max              =   7.6503687527074E-04
(PID.TID 0000.0001) %MON advcfl_W_hf_max              =   7.6503687527074E-04
(PID.TID 0000.0001) %MON pe_b_mean                    =  -6.8282720273890E-01
(PID.TID 0000.0001) %MON ke_max                       =   4.9432512546887E-06
(PID.TID 0000.0001) %MON ke_mean                      =   1.2426644667683E-08
(PID.TID 0000.0001) %MON ke_vol                       =   4.6182891020604E+12
(PID.TID 0000.0001) // =======================================================
(PID.TID 0000.0001) // End MONITOR dynamic field statistics
(PID.TID 0000.0001) // =======================================================
(PID.TID 0000.0001) // =======================================================
(PID.TID 0000.0001) // Begin OBCS MONITOR field statistics
(PID.TID 0000.0001) // =======================================================
(PID.TID 0000.0001) %MON obc_N_vVel_max               =  -5.5918077858941E-08
(PID.TID 0000.0001) %MON obc_N_vVel_min               =  -5.5918077858943E-08
(PID.TID 0000.0001) %MON obc_N_vVel_mean              =  -5.5918077858941E-08
(PID.TID 0000.0001) %MON obc_N_vVel_sd                =   9.7295071111810E-15
(PID.TID 0000.0001) %MON obc_N_vVel_Int               =  -3.6905931386901E+00
(PID.TID 0000.0001) // =======================================================
(PID.TID 0000.0001) // End OBCS MONITOR field statistics
(PID.TID 0000.0001) // =======================================================
 cg2d: Sum(rhs),rhsMax =   3.01207415799312E+00  4.53051591285137E+02
(PID.TID 0000.0001)      cg2d_init_res =   1.72289673885700E-06
(PID.TID 0000.0001)      cg2d_iters(min,last) =      -1      67
(PID.TID 0000.0001)      cg2d_last_res =   8.69841349340284E-12
(PID.TID 0000.0001) // =======================================================
(PID.TID 0000.0001) // Begin MONITOR dynamic field statistics
(PID.TID 0000.0001) // =======================================================
(PID.TID 0000.0001) %MON time_tsnumber                =                   353
(PID.TID 0000.0001) %MON time_secondsf                =   3.5300000000000E+04
(PID.TID 0000.0001) %MON dynstat_eta_max              =   5.7964600157735E+00
(PID.TID 0000.0001) %MON dynstat_eta_min              =  -1.4176912595078E+01
(PID.TID 0000.0001) %MON dynstat_eta_mean             =  -2.5270833154586E+00
(PID.TID 0000.0001) %MON dynstat_eta_sd               =   4.9419798901693E+00
(PID.TID 0000.0001) %MON dynstat_eta_del2             =   1.9058063809808E-01
(PID.TID 0000.0001) %MON dynstat_uvel_max             =   1.6694506205006E-03
(PID.TID 0000.0001) %MON dynstat_uvel_min             =  -3.3345973979151E-03
(PID.TID 0000.0001) %MON dynstat_uvel_mean            =  -9.2549041325978E-10
(PID.TID 0000.0001) %MON dynstat_uvel_sd              =   1.1762426567277E-04
(PID.TID 0000.0001) %MON dynstat_uvel_del2            =   2.9026572127184E-07
(PID.TID 0000.0001) %MON dynstat_vvel_max             =   3.3249864565130E-03
(PID.TID 0000.0001) %MON dynstat_vvel_min             =  -1.7721048894934E-03
(PID.TID 0000.0001) %MON dynstat_vvel_mean            =  -4.6681514332461E-08
(PID.TID 0000.0001) %MON dynstat_vvel_sd              =   1.0666714154441E-04
(PID.TID 0000.0001) %MON dynstat_vvel_del2            =   3.2323736706634E-07
(PID.TID 0000.0001) %MON dynstat_wvel_max             =   1.5237506575557E-04
(PID.TID 0000.0001) %MON dynstat_wvel_min             =  -9.4283036026468E-05
(PID.TID 0000.0001) %MON dynstat_wvel_mean            =   1.2582059392614E-10
(PID.TID 0000.0001) %MON dynstat_wvel_sd              =   1.6591971634817E-05
(PID.TID 0000.0001) %MON dynstat_wvel_del2            =   7.9451646906375E-08
(PID.TID 0000.0001) %MON dynstat_theta_max            =   1.2000000000000E+00
(PID.TID 0000.0001) %MON dynstat_theta_min            =  -1.0000000000000E+00
(PID.TID 0000.0001) %MON dynstat_theta_mean           =   5.6543312341060E-01
(PID.TID 0000.0001) %MON dynstat_theta_sd             =   8.4905332542144E-01
(PID.TID 0000.0001) %MON dynstat_theta_del2           =   9.5530628064455E-07
(PID.TID 0000.0001) %MON dynstat_salt_max             =   3.4700000000000E+01
(PID.TID 0000.0001) %MON dynstat_salt_min             =   3.4000000000000E+01
(PID.TID 0000.0001) %MON dynstat_salt_mean            =   3.4498086707896E+01
(PID.TID 0000.0001) %MON dynstat_salt_sd              =   2.7015394087499E-01
(PID.TID 0000.0001) %MON dynstat_salt_del2            =   3.2019216054847E-07
(PID.TID 0000.0001) %MON advcfl_uvel_max              =   3.3345973979151E-04
(PID.TID 0000.0001) %MON advcfl_vvel_max              =   3.3249864565130E-04
(PID.TID 0000.0001) %MON advcfl_wvel_max              =   7.6187532877787E-04
(PID.TID 0000.0001) %MON advcfl_W_hf_max              =   7.6187532877787E-04
(PID.TID 0000.0001) %MON pe_b_mean                    =  -6.8282669235989E-01
(PID.TID 0000.0001) %MON ke_max                       =   4.9432919379317E-06
(PID.TID 0000.0001) %MON ke_mean                      =   1.2476447453139E-08
(PID.TID 0000.0001) %MON ke_vol                       =   4.6182891135753E+12
(PID.TID 0000.0001) // =======================================================
(PID.TID 0000.0001) // End MONITOR dynamic field statistics
(PID.TID 0000.0001) // =======================================================
(PID.TID 0000.0001) // =======================================================
(PID.TID 0000.0001) // Begin OBCS MONITOR field statistics
(PID.TID 0000.0001) // =======================================================
(PID.TID 0000.0001) %MON obc_N_vVel_max               =  -5.6978506248684E-08
(PID.TID 0000.0001) %MON obc_N_vVel_min               =  -5.6978506248684E-08
(PID.TID 0000.0001) %MON obc_N_vVel_mean              =  -5.6978506248684E-08
(PID.TID 0000.0001) %MON obc_N_vVel_sd                =  -8.9141282289974E-29
(PID.TID 0000.0001) %MON obc_N_vVel_Int               =  -3.7605814124131E+00
(PID.TID 0000.0001) // =======================================================
(PID.TID 0000.0001) // End OBCS MONITOR field statistics
(PID.TID 0000.0001) // =======================================================
 cg2d: Sum(rhs),rhsMax =   3.01207189928548E+00  4.53051582392569E+02
(PID.TID 0000.0001)      cg2d_init_res =   1.71925552203269E-06
(PID.TID 0000.0001)      cg2d_iters(min,last) =      -1      67
(PID.TID 0000.0001)      cg2d_last_res =   8.75368566488800E-12
(PID.TID 0000.0001) // =======================================================
(PID.TID 0000.0001) // Begin MONITOR dynamic field statistics
(PID.TID 0000.0001) // =======================================================
(PID.TID 0000.0001) %MON time_tsnumber                =                   354
(PID.TID 0000.0001) %MON time_secondsf                =   3.5400000000000E+04
(PID.TID 0000.0001) %MON dynstat_eta_max              =   5.7964627018814E+00
(PID.TID 0000.0001) %MON dynstat_eta_min              =  -1.4176907224693E+01
(PID.TID 0000.0001) %MON dynstat_eta_mean             =  -2.5270813708361E+00
(PID.TID 0000.0001) %MON dynstat_eta_sd               =   4.9419792615283E+00
(PID.TID 0000.0001) %MON dynstat_eta_del2             =   1.9058063934482E-01
(PID.TID 0000.0001) %MON dynstat_uvel_max             =   1.6727240269994E-03
(PID.TID 0000.0001) %MON dynstat_uvel_min             =  -3.3289556886382E-03
(PID.TID 0000.0001) %MON dynstat_uvel_mean            =  -9.0173410141131E-10
(PID.TID 0000.0001) %MON dynstat_uvel_sd              =   1.1799500754273E-04
(PID.TID 0000.0001) %MON dynstat_uvel_del2            =   2.8998137183528E-07
(PID.TID 0000.0001) %MON dynstat_vvel_max             =   3.3334909774938E-03
(PID.TID 0000.0001) %MON dynstat_vvel_min             =  -1.7762145714979E-03
(PID.TID 0000.0001) %MON dynstat_vvel_mean            =  -4.8908169918836E-08
(PID.TID 0000.0001) %MON dynstat_vvel_sd              =   1.0673311912908E-04
(PID.TID 0000.0001) %MON dynstat_vvel_del2            =   3.2274262013961E-07
(PID.TID 0000.0001) %MON dynstat_wvel_max             =   1.5174184186051E-04
(PID.TID 0000.0001) %MON dynstat_wvel_min             =  -9.4808205532528E-05
(PID.TID 0000.0001) %MON dynstat_wvel_mean            =   1.2153596769291E-10
(PID.TID 0000.0001) %MON dynstat_wvel_sd              =   1.6553813113686E-05
(PID.TID 0000.0001) %MON dynstat_wvel_del2            =   7.9167367072795E-08
(PID.TID 0000.0001) %MON dynstat_theta_max            =   1.2000000000000E+00
(PID.TID 0000.0001) %MON dynstat_theta_min            =  -1.0000000000000E+00
(PID.TID 0000.0001) %MON dynstat_theta_mean           =   5.6543291306863E-01
(PID.TID 0000.0001) %MON dynstat_theta_sd             =   8.4905327850935E-01
(PID.TID 0000.0001) %MON dynstat_theta_del2           =   9.5349335120570E-07
(PID.TID 0000.0001) %MON dynstat_salt_max             =   3.4700000000000E+01
(PID.TID 0000.0001) %MON dynstat_salt_min             =   3.4000000000000E+01
(PID.TID 0000.0001) %MON dynstat_salt_mean            =   3.4498086624459E+01
(PID.TID 0000.0001) %MON dynstat_salt_sd              =   2.7015392707416E-01
(PID.TID 0000.0001) %MON dynstat_salt_del2            =   3.1980551826028E-07
(PID.TID 0000.0001) %MON advcfl_uvel_max              =   3.3289556886382E-04
(PID.TID 0000.0001) %MON advcfl_vvel_max              =   3.3334909774938E-04
(PID.TID 0000.0001) %MON advcfl_wvel_max              =   7.5870920930257E-04
(PID.TID 0000.0001) %MON advcfl_W_hf_max              =   7.5870920930257E-04
(PID.TID 0000.0001) %MON pe_b_mean                    =  -6.8282618098770E-01
(PID.TID 0000.0001) %MON ke_max                       =   4.9432514123657E-06
(PID.TID 0000.0001) %MON ke_mean                      =   1.2526343079803E-08
(PID.TID 0000.0001) %MON ke_vol                       =   4.6182891251062E+12
(PID.TID 0000.0001) // =======================================================
(PID.TID 0000.0001) // End MONITOR dynamic field statistics
(PID.TID 0000.0001) // =======================================================
(PID.TID 0000.0001) // =======================================================
(PID.TID 0000.0001) // Begin OBCS MONITOR field statistics
(PID.TID 0000.0001) // =======================================================
(PID.TID 0000.0001) %MON obc_N_vVel_max               =  -5.8654261696253E-08
(PID.TID 0000.0001) %MON obc_N_vVel_min               =  -5.8654261696254E-08
(PID.TID 0000.0001) %MON obc_N_vVel_mean              =  -5.8654261696254E-08
(PID.TID 0000.0001) %MON obc_N_vVel_sd                =  -3.3526588471893E-29
(PID.TID 0000.0001) %MON obc_N_vVel_Int               =  -3.8711812719528E+00
(PID.TID 0000.0001) // =======================================================
(PID.TID 0000.0001) // End OBCS MONITOR field statistics
(PID.TID 0000.0001) // =======================================================
 cg2d: Sum(rhs),rhsMax =   3.01206963452284E+00  4.53051573689882E+02
(PID.TID 0000.0001)      cg2d_init_res =   1.71493857302596E-06
(PID.TID 0000.0001)      cg2d_iters(min,last) =      -1      67
(PID.TID 0000.0001)      cg2d_last_res =   8.82118293673600E-12
(PID.TID 0000.0001) // =======================================================
(PID.TID 0000.0001) // Begin MONITOR dynamic field statistics
(PID.TID 0000.0001) // =======================================================
(PID.TID 0000.0001) %MON time_tsnumber                =                   355
(PID.TID 0000.0001) %MON time_secondsf                =   3.5500000000000E+04
(PID.TID 0000.0001) %MON dynstat_eta_max              =   5.7964653952543E+00
(PID.TID 0000.0001) %MON dynstat_eta_min              =  -1.4176901844778E+01
(PID.TID 0000.0001) %MON dynstat_eta_mean             =  -2.5270794221927E+00
(PID.TID 0000.0001) %MON dynstat_eta_sd               =   4.9419786310616E+00
(PID.TID 0000.0001) %MON dynstat_eta_del2             =   1.9058064060119E-01
(PID.TID 0000.0001) %MON dynstat_uvel_max             =   1.6759864992171E-03
(PID.TID 0000.0001) %MON dynstat_uvel_min             =  -3.3232801461243E-03
(PID.TID 0000.0001) %MON dynstat_uvel_mean            =  -8.8115645070447E-10
(PID.TID 0000.0001) %MON dynstat_uvel_sd              =   1.1836618130749E-04
(PID.TID 0000.0001) %MON dynstat_uvel_del2            =   2.8970359105419E-07
(PID.TID 0000.0001) %MON dynstat_vvel_max             =   3.3419433289943E-03
(PID.TID 0000.0001) %MON dynstat_vvel_min             =  -1.7802933463633E-03
(PID.TID 0000.0001) %MON dynstat_vvel_mean            =  -5.1693321557505E-08
(PID.TID 0000.0001) %MON dynstat_vvel_sd              =   1.0679840244927E-04
(PID.TID 0000.0001) %MON dynstat_vvel_del2            =   3.2224422401087E-07
(PID.TID 0000.0001) %MON dynstat_wvel_max             =   1.5110773754367E-04
(PID.TID 0000.0001) %MON dynstat_wvel_min             =  -9.5334565537470E-05
(PID.TID 0000.0001) %MON dynstat_wvel_mean            =   1.1774611207177E-10
(PID.TID 0000.0001) %MON dynstat_wvel_sd              =   1.6514464204776E-05
(PID.TID 0000.0001) %MON dynstat_wvel_del2            =   7.8866570968108E-08
(PID.TID 0000.0001) %MON dynstat_theta_max            =   1.2000000000000E+00
(PID.TID 0000.0001) %MON dynstat_theta_min            =  -1.0000000000000E+00
(PID.TID 0000.0001) %MON dynstat_theta_mean           =   5.6543270254542E-01
(PID.TID 0000.0001) %MON dynstat_theta_sd             =   8.4905323143750E-01
(PID.TID 0000.0001) %MON dynstat_theta_del2           =   9.5170929221340E-07
(PID.TID 0000.0001) %MON dynstat_salt_max             =   3.4700000000000E+01
(PID.TID 0000.0001) %MON dynstat_salt_min             =   3.4000000000000E+01
(PID.TID 0000.0001) %MON dynstat_salt_mean            =   3.4498086540950E+01
(PID.TID 0000.0001) %MON dynstat_salt_sd              =   2.7015391321257E-01
(PID.TID 0000.0001) %MON dynstat_salt_del2            =   3.1942829090417E-07
(PID.TID 0000.0001) %MON advcfl_uvel_max              =   3.3232801461243E-04
(PID.TID 0000.0001) %MON advcfl_vvel_max              =   3.3419433289943E-04
(PID.TID 0000.0001) %MON advcfl_wvel_max              =   7.5553868771836E-04
(PID.TID 0000.0001) %MON advcfl_W_hf_max              =   7.5553868771836E-04
(PID.TID 0000.0001) %MON pe_b_mean                    =  -6.8282566850661E-01
(PID.TID 0000.0001) %MON ke_max                       =   4.9431302346453E-06
(PID.TID 0000.0001) %MON ke_mean                      =   1.2576353975216E-08
(PID.TID 0000.0001) %MON ke_vol                       =   4.6182891366572E+12
(PID.TID 0000.0001) // =======================================================
(PID.TID 0000.0001) // End MONITOR dynamic field statistics
(PID.TID 0000.0001) // =======================================================
(PID.TID 0000.0001) // =======================================================
(PID.TID 0000.0001) // Begin OBCS MONITOR field statistics
(PID.TID 0000.0001) // =======================================================
(PID.TID 0000.0001) %MON obc_N_vVel_max               =  -6.0886193233803E-08
(PID.TID 0000.0001) %MON obc_N_vVel_min               =  -6.0886193233805E-08
(PID.TID 0000.0001) %MON obc_N_vVel_mean              =  -6.0886193233803E-08
(PID.TID 0000.0001) %MON obc_N_vVel_sd                =   1.4321446692198E-14
(PID.TID 0000.0001) %MON obc_N_vVel_Int               =  -4.0184887534310E+00
(PID.TID 0000.0001) // =======================================================
(PID.TID 0000.0001) // End OBCS MONITOR field statistics
(PID.TID 0000.0001) // =======================================================
 cg2d: Sum(rhs),rhsMax =   3.01206736309471E+00  4.53051565172509E+02
(PID.TID 0000.0001)      cg2d_init_res =   1.71017429183480E-06
(PID.TID 0000.0001)      cg2d_iters(min,last) =      -1      67
(PID.TID 0000.0001)      cg2d_last_res =   8.87430368435841E-12
(PID.TID 0000.0001) // =======================================================
(PID.TID 0000.0001) // Begin MONITOR dynamic field statistics
(PID.TID 0000.0001) // =======================================================
(PID.TID 0000.0001) %MON time_tsnumber                =                   356
(PID.TID 0000.0001) %MON time_secondsf                =   3.5600000000000E+04
(PID.TID 0000.0001) %MON dynstat_eta_max              =   5.7964680965850E+00
(PID.TID 0000.0001) %MON dynstat_eta_min              =  -1.4176896454276E+01
(PID.TID 0000.0001) %MON dynstat_eta_mean             =  -2.5270774689909E+00
(PID.TID 0000.0001) %MON dynstat_eta_sd               =   4.9419779986720E+00
(PID.TID 0000.0001) %MON dynstat_eta_del2             =   1.9058064186754E-01
(PID.TID 0000.0001) %MON dynstat_uvel_max             =   1.6792382631774E-03
(PID.TID 0000.0001) %MON dynstat_uvel_min             =  -3.3175714130305E-03
(PID.TID 0000.0001) %MON dynstat_uvel_mean            =  -8.6464186836735E-10
(PID.TID 0000.0001) %MON dynstat_uvel_sd              =   1.1873776895908E-04
(PID.TID 0000.0001) %MON dynstat_uvel_del2            =   2.8943236635207E-07
(PID.TID 0000.0001) %MON dynstat_vvel_max             =   3.3503434794042E-03
(PID.TID 0000.0001) %MON dynstat_vvel_min             =  -1.7843409414251E-03
(PID.TID 0000.0001) %MON dynstat_vvel_mean            =  -5.4941349658326E-08
(PID.TID 0000.0001) %MON dynstat_vvel_sd              =   1.0686327357355E-04
(PID.TID 0000.0001) %MON dynstat_vvel_del2            =   3.2174869396275E-07
(PID.TID 0000.0001) %MON dynstat_wvel_max             =   1.5047278632235E-04
(PID.TID 0000.0001) %MON dynstat_wvel_min             =  -9.5862113346845E-05
(PID.TID 0000.0001) %MON dynstat_wvel_mean            =   1.1457542310867E-10
(PID.TID 0000.0001) %MON dynstat_wvel_sd              =   1.6474805431456E-05
(PID.TID 0000.0001) %MON dynstat_wvel_del2            =   7.8561967856947E-08
(PID.TID 0000.0001) %MON dynstat_theta_max            =   1.2000000000000E+00
(PID.TID 0000.0001) %MON dynstat_theta_min            =  -1.0000000000000E+00
(PID.TID 0000.0001) %MON dynstat_theta_mean           =   5.6543249183939E-01
(PID.TID 0000.0001) %MON dynstat_theta_sd             =   8.4905318421129E-01
(PID.TID 0000.0001) %MON dynstat_theta_del2           =   9.4994689797302E-07
(PID.TID 0000.0001) %MON dynstat_salt_max             =   3.4700000000000E+01
(PID.TID 0000.0001) %MON dynstat_salt_min             =   3.4000000000000E+01
(PID.TID 0000.0001) %MON dynstat_salt_mean            =   3.4498086457369E+01
(PID.TID 0000.0001) %MON dynstat_salt_sd              =   2.7015389929176E-01
(PID.TID 0000.0001) %MON dynstat_salt_del2            =   3.1905824869018E-07
(PID.TID 0000.0001) %MON advcfl_uvel_max              =   3.3175714130305E-04
(PID.TID 0000.0001) %MON advcfl_vvel_max              =   3.3503434794042E-04
(PID.TID 0000.0001) %MON advcfl_wvel_max              =   7.5236393161173E-04
(PID.TID 0000.0001) %MON advcfl_W_hf_max              =   7.5236393161173E-04
(PID.TID 0000.0001) %MON pe_b_mean                    =  -6.8282515482244E-01
(PID.TID 0000.0001) %MON ke_max                       =   4.9429289736403E-06
(PID.TID 0000.0001) %MON ke_mean                      =   1.2626508518363E-08
(PID.TID 0000.0001) %MON ke_vol                       =   4.6182891482322E+12
(PID.TID 0000.0001) // =======================================================
(PID.TID 0000.0001) // End MONITOR dynamic field statistics
(PID.TID 0000.0001) // =======================================================
(PID.TID 0000.0001) // =======================================================
(PID.TID 0000.0001) // Begin OBCS MONITOR field statistics
(PID.TID 0000.0001) // =======================================================
(PID.TID 0000.0001) %MON obc_N_vVel_max               =  -6.3597180051401E-08
(PID.TID 0000.0001) %MON obc_N_vVel_min               =  -6.3597180051402E-08
(PID.TID 0000.0001) %MON obc_N_vVel_mean              =  -6.3597180051401E-08
(PID.TID 0000.0001) %MON obc_N_vVel_sd                =   1.5888218580783E-14
(PID.TID 0000.0001) %MON obc_N_vVel_Int               =  -4.1974138833924E+00
(PID.TID 0000.0001) // =======================================================
(PID.TID 0000.0001) // End OBCS MONITOR field statistics
(PID.TID 0000.0001) // =======================================================
 cg2d: Sum(rhs),rhsMax =   3.01206508452988E+00  4.53051556833496E+02
(PID.TID 0000.0001)      cg2d_init_res =   1.70522126002460E-06
(PID.TID 0000.0001)      cg2d_iters(min,last) =      -1      67
(PID.TID 0000.0001)      cg2d_last_res =   8.89999497078357E-12
(PID.TID 0000.0001) // =======================================================
(PID.TID 0000.0001) // Begin MONITOR dynamic field statistics
(PID.TID 0000.0001) // =======================================================
(PID.TID 0000.0001) %MON time_tsnumber                =                   357
(PID.TID 0000.0001) %MON time_secondsf                =   3.5700000000000E+04
(PID.TID 0000.0001) %MON dynstat_eta_max              =   5.7964708063612E+00
(PID.TID 0000.0001) %MON dynstat_eta_min              =  -1.4176891052356E+01
(PID.TID 0000.0001) %MON dynstat_eta_mean             =  -2.5270755107964E+00
(PID.TID 0000.0001) %MON dynstat_eta_sd               =   4.9419773643158E+00
(PID.TID 0000.0001) %MON dynstat_eta_del2             =   1.9058064314451E-01
(PID.TID 0000.0001) %MON dynstat_uvel_max             =   1.6824795433958E-03
(PID.TID 0000.0001) %MON dynstat_uvel_min             =  -3.3118301333321E-03
(PID.TID 0000.0001) %MON dynstat_uvel_mean            =  -8.5289773756295E-10
(PID.TID 0000.0001) %MON dynstat_uvel_sd              =   1.1910975237285E-04
(PID.TID 0000.0001) %MON dynstat_uvel_del2            =   2.8916768249072E-07
(PID.TID 0000.0001) %MON dynstat_vvel_max             =   3.3619768655582E-03
(PID.TID 0000.0001) %MON dynstat_vvel_min             =  -1.7883570786479E-03
(PID.TID 0000.0001) %MON dynstat_vvel_mean            =  -5.8542229040937E-08
(PID.TID 0000.0001) %MON dynstat_vvel_sd              =   1.0692803024286E-04
(PID.TID 0000.0001) %MON dynstat_vvel_del2            =   3.2126276091668E-07
(PID.TID 0000.0001) %MON dynstat_wvel_max             =   1.4983702129699E-04
(PID.TID 0000.0001) %MON dynstat_wvel_min             =  -9.6390846575076E-05
(PID.TID 0000.0001) %MON dynstat_wvel_mean            =   1.1212578347447E-10
(PID.TID 0000.0001) %MON dynstat_wvel_sd              =   1.6435762345941E-05
(PID.TID 0000.0001) %MON dynstat_wvel_del2            =   7.8266753154611E-08
(PID.TID 0000.0001) %MON dynstat_theta_max            =   1.2000000000000E+00
(PID.TID 0000.0001) %MON dynstat_theta_min            =  -1.0000000000000E+00
(PID.TID 0000.0001) %MON dynstat_theta_mean           =   5.6543228094909E-01
(PID.TID 0000.0001) %MON dynstat_theta_sd             =   8.4905313685799E-01
(PID.TID 0000.0001) %MON dynstat_theta_del2           =   9.4819925867411E-07
(PID.TID 0000.0001) %MON dynstat_salt_max             =   3.4700000000000E+01
(PID.TID 0000.0001) %MON dynstat_salt_min             =   3.4000000000000E+01
(PID.TID 0000.0001) %MON dynstat_salt_mean            =   3.4498086373716E+01
(PID.TID 0000.0001) %MON dynstat_salt_sd              =   2.7015388532058E-01
(PID.TID 0000.0001) %MON dynstat_salt_del2            =   3.1869327621640E-07
(PID.TID 0000.0001) %MON advcfl_uvel_max              =   3.3118301333321E-04
(PID.TID 0000.0001) %MON advcfl_vvel_max              =   3.3619768655582E-04
(PID.TID 0000.0001) %MON advcfl_wvel_max              =   7.4918510648496E-04
(PID.TID 0000.0001) %MON advcfl_W_hf_max              =   7.4918510648496E-04
(PID.TID 0000.0001) %MON pe_b_mean                    =  -6.8282463986592E-01
(PID.TID 0000.0001) %MON ke_max                       =   4.9426482075376E-06
(PID.TID 0000.0001) %MON ke_mean                      =   1.2676836797244E-08
(PID.TID 0000.0001) %MON ke_vol                       =   4.6182891598342E+12
(PID.TID 0000.0001) // =======================================================
(PID.TID 0000.0001) // End MONITOR dynamic field statistics
(PID.TID 0000.0001) // =======================================================
(PID.TID 0000.0001) // =======================================================
(PID.TID 0000.0001) // Begin OBCS MONITOR field statistics
(PID.TID 0000.0001) // =======================================================
(PID.TID 0000.0001) %MON obc_N_vVel_max               =  -6.6694914322183E-08
(PID.TID 0000.0001) %MON obc_N_vVel_min               =  -6.6694914322185E-08
(PID.TID 0000.0001) %MON obc_N_vVel_mean              =  -6.6694914322185E-08
(PID.TID 0000.0001) %MON obc_N_vVel_sd                =  -1.6960509462252E-28
(PID.TID 0000.0001) %MON obc_N_vVel_Int               =  -4.4018643452642E+00
(PID.TID 0000.0001) // =======================================================
(PID.TID 0000.0001) // End OBCS MONITOR field statistics
(PID.TID 0000.0001) // =======================================================
 cg2d: Sum(rhs),rhsMax =   3.01206279850544E+00  4.53051548663489E+02
(PID.TID 0000.0001)      cg2d_init_res =   1.70032782549804E-06
(PID.TID 0000.0001)      cg2d_iters(min,last) =      -1      67
(PID.TID 0000.0001)      cg2d_last_res =   8.89848193806791E-12
(PID.TID 0000.0001) // =======================================================
(PID.TID 0000.0001) // Begin MONITOR dynamic field statistics
(PID.TID 0000.0001) // =======================================================
(PID.TID 0000.0001) %MON time_tsnumber                =                   358
(PID.TID 0000.0001) %MON time_secondsf                =   3.5800000000000E+04
(PID.TID 0000.0001) %MON dynstat_eta_max              =   5.7964735248448E+00
(PID.TID 0000.0001) %MON dynstat_eta_min              =  -1.4176885638436E+01
(PID.TID 0000.0001) %MON dynstat_eta_mean             =  -2.5270735472862E+00
(PID.TID 0000.0001) %MON dynstat_eta_sd               =   4.9419767279993E+00
(PID.TID 0000.0001) %MON dynstat_eta_del2             =   1.9058064443273E-01
(PID.TID 0000.0001) %MON dynstat_uvel_max             =   1.6857105631392E-03
(PID.TID 0000.0001) %MON dynstat_uvel_min             =  -3.3060569525105E-03
(PID.TID 0000.0001) %MON dynstat_uvel_mean            =  -8.4648047346149E-10
(PID.TID 0000.0001) %MON dynstat_uvel_sd              =   1.1948211333703E-04
(PID.TID 0000.0001) %MON dynstat_uvel_del2            =   2.8890952189546E-07
(PID.TID 0000.0001) %MON dynstat_vvel_max             =   3.3744138845815E-03
(PID.TID 0000.0001) %MON dynstat_vvel_min             =  -1.7923414765084E-03
(PID.TID 0000.0001) %MON dynstat_vvel_mean            =  -6.2375271713169E-08
(PID.TID 0000.0001) %MON dynstat_vvel_sd              =   1.0699294509087E-04
(PID.TID 0000.0001) %MON dynstat_vvel_del2            =   3.2079243597368E-07
(PID.TID 0000.0001) %MON dynstat_wvel_max             =   1.4920047567054E-04
(PID.TID 0000.0001) %MON dynstat_wvel_min             =  -9.6920762886548E-05
(PID.TID 0000.0001) %MON dynstat_wvel_mean            =   1.1047558972232E-10
(PID.TID 0000.0001) %MON dynstat_wvel_sd              =   1.6398181306573E-05
(PID.TID 0000.0001) %MON dynstat_wvel_del2            =   7.7992834452101E-08
(PID.TID 0000.0001) %MON dynstat_theta_max            =   1.2000000000000E+00
(PID.TID 0000.0001) %MON dynstat_theta_min            =  -1.0000000000000E+00
(PID.TID 0000.0001) %MON dynstat_theta_mean           =   5.6543206987251E-01
(PID.TID 0000.0001) %MON dynstat_theta_sd             =   8.4905308940661E-01
(PID.TID 0000.0001) %MON dynstat_theta_del2           =   9.4646051411004E-07
(PID.TID 0000.0001) %MON dynstat_salt_max             =   3.4700000000000E+01
(PID.TID 0000.0001) %MON dynstat_salt_min             =   3.4000000000000E+01
(PID.TID 0000.0001) %MON dynstat_salt_mean            =   3.4498086289988E+01
(PID.TID 0000.0001) %MON dynstat_salt_sd              =   2.7015387130800E-01
(PID.TID 0000.0001) %MON dynstat_salt_del2            =   3.1833157697429E-07
(PID.TID 0000.0001) %MON advcfl_uvel_max              =   3.3060569525105E-04
(PID.TID 0000.0001) %MON advcfl_vvel_max              =   3.3744138845815E-04
(PID.TID 0000.0001) %MON advcfl_wvel_max              =   7.4600237835272E-04
(PID.TID 0000.0001) %MON advcfl_W_hf_max              =   7.4600237835272E-04
(PID.TID 0000.0001) %MON pe_b_mean                    =  -6.8282412359276E-01
(PID.TID 0000.0001) %MON ke_max                       =   4.9422885195427E-06
(PID.TID 0000.0001) %MON ke_mean                      =   1.2727366253201E-08
(PID.TID 0000.0001) %MON ke_vol                       =   4.6182891714659E+12
(PID.TID 0000.0001) // =======================================================
(PID.TID 0000.0001) // End MONITOR dynamic field statistics
(PID.TID 0000.0001) // =======================================================
(PID.TID 0000.0001) // =======================================================
(PID.TID 0000.0001) // Begin OBCS MONITOR field statistics
(PID.TID 0000.0001) // =======================================================
(PID.TID 0000.0001) %MON obc_N_vVel_max               =  -7.0075241160186E-08
(PID.TID 0000.0001) %MON obc_N_vVel_min               =  -7.0075241160189E-08
(PID.TID 0000.0001) %MON obc_N_vVel_mean              =  -7.0075241160186E-08
(PID.TID 0000.0001) %MON obc_N_vVel_sd                =   2.0195075835442E-14
(PID.TID 0000.0001) %MON obc_N_vVel_Int               =  -4.6249659165723E+00
(PID.TID 0000.0001) // =======================================================
(PID.TID 0000.0001) // End OBCS MONITOR field statistics
(PID.TID 0000.0001) // =======================================================
 cg2d: Sum(rhs),rhsMax =   3.01206050486652E+00  4.53051540650599E+02
(PID.TID 0000.0001)      cg2d_init_res =   1.69575870553495E-06
(PID.TID 0000.0001)      cg2d_iters(min,last) =      -1      67
(PID.TID 0000.0001)      cg2d_last_res =   8.89352502832768E-12
(PID.TID 0000.0001) // =======================================================
(PID.TID 0000.0001) // Begin MONITOR dynamic field statistics
(PID.TID 0000.0001) // =======================================================
(PID.TID 0000.0001) %MON time_tsnumber                =                   359
(PID.TID 0000.0001) %MON time_secondsf                =   3.5900000000000E+04
(PID.TID 0000.0001) %MON dynstat_eta_max              =   5.7964762520783E+00
(PID.TID 0000.0001) %MON dynstat_eta_min              =  -1.4176880212215E+01
(PID.TID 0000.0001) %MON dynstat_eta_mean             =  -2.5270715782641E+00
(PID.TID 0000.0001) %MON dynstat_eta_sd               =   4.9419760897744E+00
(PID.TID 0000.0001) %MON dynstat_eta_del2             =   1.9058064573331E-01
(PID.TID 0000.0001) %MON dynstat_uvel_max             =   1.6889315439261E-03
(PID.TID 0000.0001) %MON dynstat_uvel_min             =  -3.3002525170158E-03
(PID.TID 0000.0001) %MON dynstat_uvel_mean            =  -8.4578223285362E-10
(PID.TID 0000.0001) %MON dynstat_uvel_sd              =   1.1985483359166E-04
(PID.TID 0000.0001) %MON dynstat_uvel_del2            =   2.8865786491858E-07
(PID.TID 0000.0001) %MON dynstat_vvel_max             =   3.3868495789053E-03
(PID.TID 0000.0001) %MON dynstat_vvel_min             =  -1.7962938524123E-03
(PID.TID 0000.0001) %MON dynstat_vvel_mean            =  -6.6313140140102E-08
(PID.TID 0000.0001) %MON dynstat_vvel_sd              =   1.0705822929738E-04
(PID.TID 0000.0001) %MON dynstat_vvel_del2            =   3.2034218789693E-07
(PID.TID 0000.0001) %MON dynstat_wvel_max             =   1.4856318245720E-04
(PID.TID 0000.0001) %MON dynstat_wvel_min             =  -9.7451859816546E-05
(PID.TID 0000.0001) %MON dynstat_wvel_mean            =   1.0967550620634E-10
(PID.TID 0000.0001) %MON dynstat_wvel_sd              =   1.6362717395777E-05
(PID.TID 0000.0001) %MON dynstat_wvel_del2            =   7.7749237351477E-08
(PID.TID 0000.0001) %MON dynstat_theta_max            =   1.2000000000000E+00
(PID.TID 0000.0001) %MON dynstat_theta_min            =  -1.0000000000000E+00
(PID.TID 0000.0001) %MON dynstat_theta_mean           =   5.6543185860787E-01
(PID.TID 0000.0001) %MON dynstat_theta_sd             =   8.4905304186972E-01
(PID.TID 0000.0001) %MON dynstat_theta_del2           =   9.4472642700183E-07
(PID.TID 0000.0001) %MON dynstat_salt_max             =   3.4700000000000E+01
(PID.TID 0000.0001) %MON dynstat_salt_min             =   3.4000000000000E+01
(PID.TID 0000.0001) %MON dynstat_salt_mean            =   3.4498086206187E+01
(PID.TID 0000.0001) %MON dynstat_salt_sd              =   2.7015385725822E-01
(PID.TID 0000.0001) %MON dynstat_salt_del2            =   3.1797185302223E-07
(PID.TID 0000.0001) %MON advcfl_uvel_max              =   3.3002525170158E-04
(PID.TID 0000.0001) %MON advcfl_vvel_max              =   3.3868495789053E-04
(PID.TID 0000.0001) %MON advcfl_wvel_max              =   7.4281591228598E-04
(PID.TID 0000.0001) %MON advcfl_W_hf_max              =   7.4281591228598E-04
(PID.TID 0000.0001) %MON pe_b_mean                    =  -6.8282360598619E-01
(PID.TID 0000.0001) %MON ke_max                       =   4.9418504943573E-06
(PID.TID 0000.0001) %MON ke_mean                      =   1.2778117785408E-08
(PID.TID 0000.0001) %MON ke_vol                       =   4.6182891831291E+12
(PID.TID 0000.0001) // =======================================================
(PID.TID 0000.0001) // End MONITOR dynamic field statistics
(PID.TID 0000.0001) // =======================================================
(PID.TID 0000.0001) // =======================================================
(PID.TID 0000.0001) // Begin OBCS MONITOR field statistics
(PID.TID 0000.0001) // =======================================================
(PID.TID 0000.0001) %MON obc_N_vVel_max               =  -7.3625495360136E-08
(PID.TID 0000.0001) %MON obc_N_vVel_min               =  -7.3625495360139E-08
(PID.TID 0000.0001) %MON obc_N_vVel_mean              =  -7.3625495360139E-08
(PID.TID 0000.0001) %MON obc_N_vVel_sd                =  -6.1057834064106E-28
(PID.TID 0000.0001) %MON obc_N_vVel_Int               =  -4.8592826937692E+00
(PID.TID 0000.0001) // =======================================================
(PID.TID 0000.0001) // End OBCS MONITOR field statistics
(PID.TID 0000.0001) // =======================================================
 cg2d: Sum(rhs),rhsMax =   3.01205820361954E+00  4.53051532780199E+02
(PID.TID 0000.0001)      cg2d_init_res =   1.69169607219775E-06
(PID.TID 0000.0001)      cg2d_iters(min,last) =      -1      67
(PID.TID 0000.0001)      cg2d_last_res =   8.90857545734472E-12
(PID.TID 0000.0001) // =======================================================
(PID.TID 0000.0001) // Begin MONITOR dynamic field statistics
(PID.TID 0000.0001) // =======================================================
(PID.TID 0000.0001) %MON time_tsnumber                =                   360
(PID.TID 0000.0001) %MON time_secondsf                =   3.6000000000000E+04
(PID.TID 0000.0001) %MON dynstat_eta_max              =   5.7964789878908E+00
(PID.TID 0000.0001) %MON dynstat_eta_min              =  -1.4176874773705E+01
(PID.TID 0000.0001) %MON dynstat_eta_mean             =  -2.5270696036537E+00
(PID.TID 0000.0001) %MON dynstat_eta_sd               =   4.9419754497356E+00
(PID.TID 0000.0001) %MON dynstat_eta_del2             =   1.9058064704709E-01
(PID.TID 0000.0001) %MON dynstat_uvel_max             =   1.6921427055721E-03
(PID.TID 0000.0001) %MON dynstat_uvel_min             =  -3.2944174743583E-03
(PID.TID 0000.0001) %MON dynstat_uvel_mean            =  -8.5100441114761E-10
(PID.TID 0000.0001) %MON dynstat_uvel_sd              =   1.2022789485687E-04
(PID.TID 0000.0001) %MON dynstat_uvel_del2            =   2.8841269012019E-07
(PID.TID 0000.0001) %MON dynstat_vvel_max             =   3.3992840766357E-03
(PID.TID 0000.0001) %MON dynstat_vvel_min             =  -1.8002139244988E-03
(PID.TID 0000.0001) %MON dynstat_vvel_mean            =  -7.0226078362633E-08
(PID.TID 0000.0001) %MON dynstat_vvel_sd              =   1.0712400527282E-04
(PID.TID 0000.0001) %MON dynstat_vvel_del2            =   3.1991433911901E-07
(PID.TID 0000.0001) %MON dynstat_wvel_max             =   1.4792517434236E-04
(PID.TID 0000.0001) %MON dynstat_wvel_min             =  -9.7984134816498E-05
(PID.TID 0000.0001) %MON dynstat_wvel_mean            =   1.0974672885745E-10
(PID.TID 0000.0001) %MON dynstat_wvel_sd              =   1.6329749141454E-05
(PID.TID 0000.0001) %MON dynstat_wvel_del2            =   7.7540907905478E-08
(PID.TID 0000.0001) %MON dynstat_theta_max            =   1.2000000000000E+00
(PID.TID 0000.0001) %MON dynstat_theta_min            =  -1.0000000000000E+00
(PID.TID 0000.0001) %MON dynstat_theta_mean           =   5.6543164715220E-01
(PID.TID 0000.0001) %MON dynstat_theta_sd             =   8.4905299425626E-01
(PID.TID 0000.0001) %MON dynstat_theta_del2           =   9.4299582436415E-07
(PID.TID 0000.0001) %MON dynstat_salt_max             =   3.4700000000000E+01
(PID.TID 0000.0001) %MON dynstat_salt_min             =   3.4000000000000E+01
(PID.TID 0000.0001) %MON dynstat_salt_mean            =   3.4498086122310E+01
(PID.TID 0000.0001) %MON dynstat_salt_sd              =   2.7015384317400E-01
(PID.TID 0000.0001) %MON dynstat_salt_del2            =   3.1761371051753E-07
(PID.TID 0000.0001) %MON advcfl_uvel_max              =   3.2944174743583E-04
(PID.TID 0000.0001) %MON advcfl_vvel_max              =   3.3992840766357E-04
(PID.TID 0000.0001) %MON advcfl_wvel_max              =   7.3962587171179E-04
(PID.TID 0000.0001) %MON advcfl_W_hf_max              =   7.3962587171179E-04
(PID.TID 0000.0001) %MON pe_b_mean                    =  -6.8282308705376E-01
(PID.TID 0000.0001) %MON ke_max                       =   4.9413347150446E-06
(PID.TID 0000.0001) %MON ke_mean                      =   1.2829102808724E-08
(PID.TID 0000.0001) %MON ke_vol                       =   4.6182891948251E+12
(PID.TID 0000.0001) // =======================================================
(PID.TID 0000.0001) // End MONITOR dynamic field statistics
(PID.TID 0000.0001) // =======================================================
(PID.TID 0000.0001) // =======================================================
(PID.TID 0000.0001) // Begin OBCS MONITOR field statistics
(PID.TID 0000.0001) // =======================================================
(PID.TID 0000.0001) %MON obc_N_vVel_max               =  -7.7228344375350E-08
(PID.TID 0000.0001) %MON obc_N_vVel_min               =  -7.7228344375350E-08
(PID.TID 0000.0001) %MON obc_N_vVel_mean              =  -7.7228344375350E-08
(PID.TID 0000.0001) %MON obc_N_vVel_sd                =  -1.5934990285464E-28
(PID.TID 0000.0001) %MON obc_N_vVel_Int               =  -5.0970707287731E+00
(PID.TID 0000.0001) // =======================================================
(PID.TID 0000.0001) // End OBCS MONITOR field statistics
(PID.TID 0000.0001) // =======================================================
 cg2d: Sum(rhs),rhsMax =   3.01205589494697E+00  4.53051525035393E+02
(PID.TID 0000.0001)      cg2d_init_res =   1.68822621918548E-06
(PID.TID 0000.0001)      cg2d_iters(min,last) =      -1      67
(PID.TID 0000.0001)      cg2d_last_res =   8.93178942834226E-12
(PID.TID 0000.0001) // =======================================================
(PID.TID 0000.0001) // Begin MONITOR dynamic field statistics
(PID.TID 0000.0001) // =======================================================
(PID.TID 0000.0001) %MON time_tsnumber                =                   361
(PID.TID 0000.0001) %MON time_secondsf                =   3.6100000000000E+04
(PID.TID 0000.0001) %MON dynstat_eta_max              =   5.7964817319193E+00
(PID.TID 0000.0001) %MON dynstat_eta_min              =  -1.4176869323196E+01
(PID.TID 0000.0001) %MON dynstat_eta_mean             =  -2.5270676235140E+00
(PID.TID 0000.0001) %MON dynstat_eta_sd               =   4.9419748080138E+00
(PID.TID 0000.0001) %MON dynstat_eta_del2             =   1.9058064837479E-01
(PID.TID 0000.0001) %MON dynstat_uvel_max             =   1.6953442660448E-03
(PID.TID 0000.0001) %MON dynstat_uvel_min             =  -3.2885524729735E-03
(PID.TID 0000.0001) %MON dynstat_uvel_mean            =  -8.6214808287697E-10
(PID.TID 0000.0001) %MON dynstat_uvel_sd              =   1.2060127890272E-04
(PID.TID 0000.0001) %MON dynstat_uvel_del2            =   2.8817397510352E-07
(PID.TID 0000.0001) %MON dynstat_vvel_max             =   3.4117175045156E-03
(PID.TID 0000.0001) %MON dynstat_vvel_min             =  -1.8041014131711E-03
(PID.TID 0000.0001) %MON dynstat_vvel_mean            =  -7.3986239814404E-08
(PID.TID 0000.0001) %MON dynstat_vvel_sd              =   1.0719029192210E-04
(PID.TID 0000.0001) %MON dynstat_vvel_del2            =   3.1950876273201E-07
(PID.TID 0000.0001) %MON dynstat_wvel_max             =   1.4728648332891E-04
(PID.TID 0000.0001) %MON dynstat_wvel_min             =  -9.8517588173515E-05
(PID.TID 0000.0001) %MON dynstat_wvel_mean            =   1.1068293640624E-10
(PID.TID 0000.0001) %MON dynstat_wvel_sd              =   1.6299331638413E-05
(PID.TID 0000.0001) %MON dynstat_wvel_del2            =   7.7368087138928E-08
(PID.TID 0000.0001) %MON dynstat_theta_max            =   1.2000000000000E+00
(PID.TID 0000.0001) %MON dynstat_theta_min            =  -1.0000000000000E+00
(PID.TID 0000.0001) %MON dynstat_theta_mean           =   5.6543143550301E-01
(PID.TID 0000.0001) %MON dynstat_theta_sd             =   8.4905294656964E-01
(PID.TID 0000.0001) %MON dynstat_theta_del2           =   9.4127004953452E-07
(PID.TID 0000.0001) %MON dynstat_salt_max             =   3.4700000000000E+01
(PID.TID 0000.0001) %MON dynstat_salt_min             =   3.4000000000000E+01
(PID.TID 0000.0001) %MON dynstat_salt_mean            =   3.4498086038357E+01
(PID.TID 0000.0001) %MON dynstat_salt_sd              =   2.7015382905642E-01
(PID.TID 0000.0001) %MON dynstat_salt_del2            =   3.1725755237585E-07
(PID.TID 0000.0001) %MON advcfl_uvel_max              =   3.2885524729735E-04
(PID.TID 0000.0001) %MON advcfl_vvel_max              =   3.4117175045156E-04
(PID.TID 0000.0001) %MON advcfl_wvel_max              =   7.3643241664456E-04
(PID.TID 0000.0001) %MON advcfl_W_hf_max              =   7.3643241664456E-04
(PID.TID 0000.0001) %MON pe_b_mean                    =  -6.8282256683097E-01
(PID.TID 0000.0001) %MON ke_max                       =   4.9407417586030E-06
(PID.TID 0000.0001) %MON ke_mean                      =   1.2880321654135E-08
(PID.TID 0000.0001) %MON ke_vol                       =   4.6182892065543E+12
(PID.TID 0000.0001) // =======================================================
(PID.TID 0000.0001) // End MONITOR dynamic field statistics
(PID.TID 0000.0001) // =======================================================
(PID.TID 0000.0001) // =======================================================
(PID.TID 0000.0001) // Begin OBCS MONITOR field statistics
(PID.TID 0000.0001) // =======================================================
(PID.TID 0000.0001) %MON obc_N_vVel_max               =  -8.0765864189716E-08
(PID.TID 0000.0001) %MON obc_N_vVel_min               =  -8.0765864189717E-08
(PID.TID 0000.0001) %MON obc_N_vVel_mean              =  -8.0765864189717E-08
(PID.TID 0000.0001) %MON obc_N_vVel_sd                =  -3.2737727566672E-28
(PID.TID 0000.0001) %MON obc_N_vVel_Int               =  -5.3305470365213E+00
(PID.TID 0000.0001) // =======================================================
(PID.TID 0000.0001) // End OBCS MONITOR field statistics
(PID.TID 0000.0001) // =======================================================
 cg2d: Sum(rhs),rhsMax =   3.01205357919955E+00  4.53051517396587E+02
(PID.TID 0000.0001)      cg2d_init_res =   1.68535473483337E-06
(PID.TID 0000.0001)      cg2d_iters(min,last) =      -1      67
(PID.TID 0000.0001)      cg2d_last_res =   8.93845522644808E-12
(PID.TID 0000.0001) // =======================================================
(PID.TID 0000.0001) // Begin MONITOR dynamic field statistics
(PID.TID 0000.0001) // =======================================================
(PID.TID 0000.0001) %MON time_tsnumber                =                   362
(PID.TID 0000.0001) %MON time_secondsf                =   3.6200000000000E+04
(PID.TID 0000.0001) %MON dynstat_eta_max              =   5.7964844835916E+00
(PID.TID 0000.0001) %MON dynstat_eta_min              =  -1.4176863861223E+01
(PID.TID 0000.0001) %MON dynstat_eta_mean             =  -2.5270656380300E+00
(PID.TID 0000.0001) %MON dynstat_eta_sd               =   4.9419741647723E+00
(PID.TID 0000.0001) %MON dynstat_eta_del2             =   1.9058064971685E-01
(PID.TID 0000.0001) %MON dynstat_uvel_max             =   1.6985364415536E-03
(PID.TID 0000.0001) %MON dynstat_uvel_min             =  -3.2826581628507E-03
(PID.TID 0000.0001) %MON dynstat_uvel_mean            =  -8.7902088067986E-10
(PID.TID 0000.0001) %MON dynstat_uvel_sd              =   1.2097496758611E-04
(PID.TID 0000.0001) %MON dynstat_uvel_del2            =   2.8794169665314E-07
(PID.TID 0000.0001) %MON dynstat_vvel_max             =   3.4241499878027E-03
(PID.TID 0000.0001) %MON dynstat_vvel_min             =  -1.8079560444786E-03
(PID.TID 0000.0001) %MON dynstat_vvel_mean            =  -7.7471903678242E-08
(PID.TID 0000.0001) %MON dynstat_vvel_sd              =   1.0725700446960E-04
(PID.TID 0000.0001) %MON dynstat_vvel_del2            =   3.1912291700900E-07
(PID.TID 0000.0001) %MON dynstat_wvel_max             =   1.4664714147342E-04
(PID.TID 0000.0001) %MON dynstat_wvel_min             =  -9.9052221116187E-05
(PID.TID 0000.0001) %MON dynstat_wvel_mean            =   1.1244922952123E-10
(PID.TID 0000.0001) %MON dynstat_wvel_sd              =   1.6271194159037E-05
(PID.TID 0000.0001) %MON dynstat_wvel_del2            =   7.7226342053064E-08
(PID.TID 0000.0001) %MON dynstat_theta_max            =   1.2000000000000E+00
(PID.TID 0000.0001) %MON dynstat_theta_min            =  -1.0000000000000E+00
(PID.TID 0000.0001) %MON dynstat_theta_mean           =   5.6543122365765E-01
(PID.TID 0000.0001) %MON dynstat_theta_sd             =   8.4905289878937E-01
(PID.TID 0000.0001) %MON dynstat_theta_del2           =   9.3955258191036E-07
(PID.TID 0000.0001) %MON dynstat_salt_max             =   3.4700000000000E+01
(PID.TID 0000.0001) %MON dynstat_salt_min             =   3.4000000000000E+01
(PID.TID 0000.0001) %MON dynstat_salt_mean            =   3.4498085954327E+01
(PID.TID 0000.0001) %MON dynstat_salt_sd              =   2.7015381489862E-01
(PID.TID 0000.0001) %MON dynstat_salt_del2            =   3.1690441744470E-07
(PID.TID 0000.0001) %MON advcfl_uvel_max              =   3.2826581628507E-04
(PID.TID 0000.0001) %MON advcfl_vvel_max              =   3.4241499878027E-04
(PID.TID 0000.0001) %MON advcfl_wvel_max              =   7.3323570736710E-04
(PID.TID 0000.0001) %MON advcfl_W_hf_max              =   7.3323570736710E-04
(PID.TID 0000.0001) %MON pe_b_mean                    =  -6.8282204537758E-01
(PID.TID 0000.0001) %MON ke_max                       =   4.9400721907605E-06
(PID.TID 0000.0001) %MON ke_mean                      =   1.2931763520619E-08
(PID.TID 0000.0001) %MON ke_vol                       =   4.6182892183163E+12
(PID.TID 0000.0001) // =======================================================
(PID.TID 0000.0001) // End MONITOR dynamic field statistics
(PID.TID 0000.0001) // =======================================================
(PID.TID 0000.0001) // =======================================================
(PID.TID 0000.0001) // Begin OBCS MONITOR field statistics
(PID.TID 0000.0001) // =======================================================
(PID.TID 0000.0001) %MON obc_N_vVel_max               =  -8.4123247108427E-08
(PID.TID 0000.0001) %MON obc_N_vVel_min               =  -8.4123247108430E-08
(PID.TID 0000.0001) %MON obc_N_vVel_mean              =  -8.4123247108427E-08
(PID.TID 0000.0001) %MON obc_N_vVel_sd                =   2.7202050089971E-14
(PID.TID 0000.0001) %MON obc_N_vVel_Int               =  -5.5521343091562E+00
(PID.TID 0000.0001) // =======================================================
(PID.TID 0000.0001) // End OBCS MONITOR field statistics
(PID.TID 0000.0001) // =======================================================
 cg2d: Sum(rhs),rhsMax =   3.01205125690062E+00  4.53051509841830E+02
(PID.TID 0000.0001)      cg2d_init_res =   1.68300044033083E-06
(PID.TID 0000.0001)      cg2d_iters(min,last) =      -1      67
(PID.TID 0000.0001)      cg2d_last_res =   8.93241954507866E-12
(PID.TID 0000.0001) // =======================================================
(PID.TID 0000.0001) // Begin MONITOR dynamic field statistics
(PID.TID 0000.0001) // =======================================================
(PID.TID 0000.0001) %MON time_tsnumber                =                   363
(PID.TID 0000.0001) %MON time_secondsf                =   3.6300000000000E+04
(PID.TID 0000.0001) %MON dynstat_eta_max              =   5.7964872421421E+00
(PID.TID 0000.0001) %MON dynstat_eta_min              =  -1.4176858388581E+01
(PID.TID 0000.0001) %MON dynstat_eta_mean             =  -2.5270636475182E+00
(PID.TID 0000.0001) %MON dynstat_eta_sd               =   4.9419735202146E+00
(PID.TID 0000.0001) %MON dynstat_eta_del2             =   1.9058065107379E-01
(PID.TID 0000.0001) %MON dynstat_uvel_max             =   1.7017194463325E-03
(PID.TID 0000.0001) %MON dynstat_uvel_min             =  -3.2767351944469E-03
(PID.TID 0000.0001) %MON dynstat_uvel_mean            =  -9.0123772826118E-10
(PID.TID 0000.0001) %MON dynstat_uvel_sd              =   1.2134894289717E-04
(PID.TID 0000.0001) %MON dynstat_uvel_del2            =   2.8771583120959E-07
(PID.TID 0000.0001) %MON dynstat_vvel_max             =   3.4365816492112E-03
(PID.TID 0000.0001) %MON dynstat_vvel_min             =  -1.8117775529056E-03
(PID.TID 0000.0001) %MON dynstat_vvel_mean            =  -8.0571419585918E-08
(PID.TID 0000.0001) %MON dynstat_vvel_sd              =   1.0732396805889E-04
(PID.TID 0000.0001) %MON dynstat_vvel_del2            =   3.1875220017946E-07
(PID.TID 0000.0001) %MON dynstat_wvel_max             =   1.4600718110122E-04
(PID.TID 0000.0001) %MON dynstat_wvel_min             =  -9.9588034503757E-05
(PID.TID 0000.0001) %MON dynstat_wvel_mean            =   1.1498312713561E-10
(PID.TID 0000.0001) %MON dynstat_wvel_sd              =   1.6244780888097E-05
(PID.TID 0000.0001) %MON dynstat_wvel_del2            =   7.7107230279652E-08
(PID.TID 0000.0001) %MON dynstat_theta_max            =   1.2000000000000E+00
(PID.TID 0000.0001) %MON dynstat_theta_min            =  -1.0000000000000E+00
(PID.TID 0000.0001) %MON dynstat_theta_mean           =   5.6543101161478E-01
(PID.TID 0000.0001) %MON dynstat_theta_sd             =   8.4905285092528E-01
(PID.TID 0000.0001) %MON dynstat_theta_del2           =   9.3784832010414E-07
(PID.TID 0000.0001) %MON dynstat_salt_max             =   3.4700000000000E+01
(PID.TID 0000.0001) %MON dynstat_salt_min             =   3.4000000000000E+01
(PID.TID 0000.0001) %MON dynstat_salt_mean            =   3.4498085870219E+01
(PID.TID 0000.0001) %MON dynstat_salt_sd              =   2.7015380070402E-01
(PID.TID 0000.0001) %MON dynstat_salt_del2            =   3.1655573893747E-07
(PID.TID 0000.0001) %MON advcfl_uvel_max              =   3.2767351944469E-04
(PID.TID 0000.0001) %MON advcfl_vvel_max              =   3.4365816492112E-04
(PID.TID 0000.0001) %MON advcfl_wvel_max              =   7.3003590550611E-04
(PID.TID 0000.0001) %MON advcfl_W_hf_max              =   7.3003590550611E-04
(PID.TID 0000.0001) %MON pe_b_mean                    =  -6.8282152278042E-01
(PID.TID 0000.0001) %MON ke_max                       =   4.9393265630846E-06
(PID.TID 0000.0001) %MON ke_mean                      =   1.2983407906733E-08
(PID.TID 0000.0001) %MON ke_vol                       =   4.6182892301101E+12
(PID.TID 0000.0001) // =======================================================
(PID.TID 0000.0001) // End MONITOR dynamic field statistics
(PID.TID 0000.0001) // =======================================================
(PID.TID 0000.0001) // =======================================================
(PID.TID 0000.0001) // Begin OBCS MONITOR field statistics
(PID.TID 0000.0001) // =======================================================
(PID.TID 0000.0001) %MON obc_N_vVel_max               =  -8.7192552938544E-08
(PID.TID 0000.0001) %MON obc_N_vVel_min               =  -8.7192552938546E-08
(PID.TID 0000.0001) %MON obc_N_vVel_mean              =  -8.7192552938544E-08
(PID.TID 0000.0001) %MON obc_N_vVel_sd                =   2.0408786293082E-14
(PID.TID 0000.0001) %MON obc_N_vVel_Int               =  -5.7547084939439E+00
(PID.TID 0000.0001) // =======================================================
(PID.TID 0000.0001) // End OBCS MONITOR field statistics
(PID.TID 0000.0001) // =======================================================
 cg2d: Sum(rhs),rhsMax =   3.01204892871427E+00  4.53051502346567E+02
(PID.TID 0000.0001)      cg2d_init_res =   1.68099353678864E-06
(PID.TID 0000.0001)      cg2d_iters(min,last) =      -1      67
(PID.TID 0000.0001)      cg2d_last_res =   8.92855229334360E-12
(PID.TID 0000.0001) // =======================================================
(PID.TID 0000.0001) // Begin MONITOR dynamic field statistics
(PID.TID 0000.0001) // =======================================================
(PID.TID 0000.0001) %MON time_tsnumber                =                   364
(PID.TID 0000.0001) %MON time_secondsf                =   3.6400000000000E+04
(PID.TID 0000.0001) %MON dynstat_eta_max              =   5.7964900066881E+00
(PID.TID 0000.0001) %MON dynstat_eta_min              =  -1.4176852906288E+01
(PID.TID 0000.0001) %MON dynstat_eta_mean             =  -2.5270616523988E+00
(PID.TID 0000.0001) %MON dynstat_eta_sd               =   4.9419728745722E+00
(PID.TID 0000.0001) %MON dynstat_eta_del2             =   1.9058065244628E-01
(PID.TID 0000.0001) %MON dynstat_uvel_max             =   1.7048934923825E-03
(PID.TID 0000.0001) %MON dynstat_uvel_min             =  -3.2707842185651E-03
(PID.TID 0000.0001) %MON dynstat_uvel_mean            =  -9.2824407457850E-10
(PID.TID 0000.0001) %MON dynstat_uvel_sd              =   1.2172318698571E-04
(PID.TID 0000.0001) %MON dynstat_uvel_del2            =   2.8749635521951E-07
(PID.TID 0000.0001) %MON dynstat_vvel_max             =   3.4490126084514E-03
(PID.TID 0000.0001) %MON dynstat_vvel_min             =  -1.8155656827137E-03
(PID.TID 0000.0001) %MON dynstat_vvel_mean            =  -8.3186803798230E-08
(PID.TID 0000.0001) %MON dynstat_vvel_sd              =   1.0739094283884E-04
(PID.TID 0000.0001) %MON dynstat_vvel_del2            =   3.1839057075910E-07
(PID.TID 0000.0001) %MON dynstat_wvel_max             =   1.4536663457571E-04
(PID.TID 0000.0001) %MON dynstat_wvel_min             =  -1.0012502887562E-04
(PID.TID 0000.0001) %MON dynstat_wvel_mean            =   1.1819870370219E-10
(PID.TID 0000.0001) %MON dynstat_wvel_sd              =   1.6219328232417E-05
(PID.TID 0000.0001) %MON dynstat_wvel_del2            =   7.6999488959871E-08
(PID.TID 0000.0001) %MON dynstat_theta_max            =   1.2000000000000E+00
(PID.TID 0000.0001) %MON dynstat_theta_min            =  -1.0000000000000E+00
(PID.TID 0000.0001) %MON dynstat_theta_mean           =   5.6543079937250E-01
(PID.TID 0000.0001) %MON dynstat_theta_sd             =   8.4905280299052E-01
(PID.TID 0000.0001) %MON dynstat_theta_del2           =   9.3616356903693E-07
(PID.TID 0000.0001) %MON dynstat_salt_max             =   3.4700000000000E+01
(PID.TID 0000.0001) %MON dynstat_salt_min             =   3.4000000000000E+01
(PID.TID 0000.0001) %MON dynstat_salt_mean            =   3.4498085786033E+01
(PID.TID 0000.0001) %MON dynstat_salt_sd              =   2.7015378647655E-01
(PID.TID 0000.0001) %MON dynstat_salt_del2            =   3.1621339686578E-07
(PID.TID 0000.0001) %MON advcfl_uvel_max              =   3.2707842185651E-04
(PID.TID 0000.0001) %MON advcfl_vvel_max              =   3.4490126084514E-04
(PID.TID 0000.0001) %MON advcfl_wvel_max              =   7.2683317287856E-04
(PID.TID 0000.0001) %MON advcfl_W_hf_max              =   7.2683317287856E-04
(PID.TID 0000.0001) %MON pe_b_mean                    =  -6.8282099914476E-01
(PID.TID 0000.0001) %MON ke_max                       =   4.9385054108489E-06
(PID.TID 0000.0001) %MON ke_mean                      =   1.3035227277905E-08
(PID.TID 0000.0001) %MON ke_vol                       =   4.6182892419337E+12
(PID.TID 0000.0001) // =======================================================
(PID.TID 0000.0001) // End MONITOR dynamic field statistics
(PID.TID 0000.0001) // =======================================================
(PID.TID 0000.0001) // =======================================================
(PID.TID 0000.0001) // Begin OBCS MONITOR field statistics
(PID.TID 0000.0001) // =======================================================
(PID.TID 0000.0001) %MON obc_N_vVel_max               =  -8.9876313435606E-08
(PID.TID 0000.0001) %MON obc_N_vVel_min               =  -8.9876313435607E-08
(PID.TID 0000.0001) %MON obc_N_vVel_mean              =  -8.9876313435606E-08
(PID.TID 0000.0001) %MON obc_N_vVel_sd                =   1.4862067603866E-14
(PID.TID 0000.0001) %MON obc_N_vVel_Int               =  -5.9318366867500E+00
(PID.TID 0000.0001) // =======================================================
(PID.TID 0000.0001) // End OBCS MONITOR field statistics
(PID.TID 0000.0001) // =======================================================
 cg2d: Sum(rhs),rhsMax =   3.01204659542284E+00  4.53051494884727E+02
(PID.TID 0000.0001)      cg2d_init_res =   1.67912149586362E-06
(PID.TID 0000.0001)      cg2d_iters(min,last) =      -1      67
(PID.TID 0000.0001)      cg2d_last_res =   8.93786407341920E-12
(PID.TID 0000.0001) // =======================================================
(PID.TID 0000.0001) // Begin MONITOR dynamic field statistics
(PID.TID 0000.0001) // =======================================================
(PID.TID 0000.0001) %MON time_tsnumber                =                   365
(PID.TID 0000.0001) %MON time_secondsf                =   3.6500000000000E+04
(PID.TID 0000.0001) %MON dynstat_eta_max              =   5.7964927762323E+00
(PID.TID 0000.0001) %MON dynstat_eta_min              =  -1.4176847415521E+01
(PID.TID 0000.0001) %MON dynstat_eta_mean             =  -2.5270596531829E+00
(PID.TID 0000.0001) %MON dynstat_eta_sd               =   4.9419722280882E+00
(PID.TID 0000.0001) %MON dynstat_eta_del2             =   1.9058065383489E-01
(PID.TID 0000.0001) %MON dynstat_uvel_max             =   1.7080587897063E-03
(PID.TID 0000.0001) %MON dynstat_uvel_min             =  -3.2648058868243E-03
(PID.TID 0000.0001) %MON dynstat_uvel_mean            =  -9.5934260095652E-10
(PID.TID 0000.0001) %MON dynstat_uvel_sd              =   1.2209768220630E-04
(PID.TID 0000.0001) %MON dynstat_uvel_del2            =   2.8728324571858E-07
(PID.TID 0000.0001) %MON dynstat_vvel_max             =   3.4614429823772E-03
(PID.TID 0000.0001) %MON dynstat_vvel_min             =  -1.8193201891918E-03
(PID.TID 0000.0001) %MON dynstat_vvel_mean            =  -8.5236782287845E-08
(PID.TID 0000.0001) %MON dynstat_vvel_sd              =   1.0745765752571E-04
(PID.TID 0000.0001) %MON dynstat_vvel_del2            =   3.1803135317101E-07
(PID.TID 0000.0001) %MON dynstat_wvel_max             =   1.4472553436882E-04
(PID.TID 0000.0001) %MON dynstat_wvel_min             =  -1.0066320468373E-04
(PID.TID 0000.0001) %MON dynstat_wvel_mean            =   1.2199011812937E-10
(PID.TID 0000.0001) %MON dynstat_wvel_sd              =   1.6193968340560E-05
(PID.TID 0000.0001) %MON dynstat_wvel_del2            =   7.6890574416309E-08
(PID.TID 0000.0001) %MON dynstat_theta_max            =   1.2000000000000E+00
(PID.TID 0000.0001) %MON dynstat_theta_min            =  -1.0000000000000E+00
(PID.TID 0000.0001) %MON dynstat_theta_mean           =   5.6543058692864E-01
(PID.TID 0000.0001) %MON dynstat_theta_sd             =   8.4905275496872E-01
(PID.TID 0000.0001) %MON dynstat_theta_del2           =   9.3450495670222E-07
(PID.TID 0000.0001) %MON dynstat_salt_max             =   3.4700000000000E+01
(PID.TID 0000.0001) %MON dynstat_salt_min             =   3.4000000000000E+01
(PID.TID 0000.0001) %MON dynstat_salt_mean            =   3.4498085701768E+01
(PID.TID 0000.0001) %MON dynstat_salt_sd              =   2.7015377221110E-01
(PID.TID 0000.0001) %MON dynstat_salt_del2            =   3.1587934572319E-07
(PID.TID 0000.0001) %MON advcfl_uvel_max              =   3.2648058868243E-04
(PID.TID 0000.0001) %MON advcfl_vvel_max              =   3.4614429823772E-04
(PID.TID 0000.0001) %MON advcfl_wvel_max              =   7.2362767184408E-04
(PID.TID 0000.0001) %MON advcfl_W_hf_max              =   7.2362767184408E-04
(PID.TID 0000.0001) %MON pe_b_mean                    =  -6.8282047459126E-01
(PID.TID 0000.0001) %MON ke_max                       =   4.9376092510914E-06
(PID.TID 0000.0001) %MON ke_mean                      =   1.3087190657352E-08
(PID.TID 0000.0001) %MON ke_vol                       =   4.6182892537848E+12
(PID.TID 0000.0001) // =======================================================
(PID.TID 0000.0001) // End MONITOR dynamic field statistics
(PID.TID 0000.0001) // =======================================================
(PID.TID 0000.0001) // =======================================================
(PID.TID 0000.0001) // Begin OBCS MONITOR field statistics
(PID.TID 0000.0001) // =======================================================
(PID.TID 0000.0001) %MON obc_N_vVel_max               =  -9.2090471444562E-08
(PID.TID 0000.0001) %MON obc_N_vVel_min               =  -9.2090471444564E-08
(PID.TID 0000.0001) %MON obc_N_vVel_mean              =  -9.2090471444562E-08
(PID.TID 0000.0001) %MON obc_N_vVel_sd                =   1.7896299268836E-14
(PID.TID 0000.0001) %MON obc_N_vVel_Int               =  -6.0779711153411E+00
(PID.TID 0000.0001) // =======================================================
(PID.TID 0000.0001) // End OBCS MONITOR field statistics
(PID.TID 0000.0001) // =======================================================
 cg2d: Sum(rhs),rhsMax =   3.01204425790426E+00  4.53051487428291E+02
(PID.TID 0000.0001)      cg2d_init_res =   1.67714623934379E-06
(PID.TID 0000.0001)      cg2d_iters(min,last) =      -1      67
(PID.TID 0000.0001)      cg2d_last_res =   8.96031538871691E-12
(PID.TID 0000.0001) // =======================================================
(PID.TID 0000.0001) // Begin MONITOR dynamic field statistics
(PID.TID 0000.0001) // =======================================================
(PID.TID 0000.0001) %MON time_tsnumber                =                   366
(PID.TID 0000.0001) %MON time_secondsf                =   3.6600000000000E+04
(PID.TID 0000.0001) %MON dynstat_eta_max              =   5.7964955496584E+00
(PID.TID 0000.0001) %MON dynstat_eta_min              =  -1.4176841917583E+01
(PID.TID 0000.0001) %MON dynstat_eta_mean             =  -2.5270576504507E+00
(PID.TID 0000.0001) %MON dynstat_eta_sd               =   4.9419715810039E+00
(PID.TID 0000.0001) %MON dynstat_eta_del2             =   1.9058065523959E-01
(PID.TID 0000.0001) %MON dynstat_uvel_max             =   1.7112155460239E-03
(PID.TID 0000.0001) %MON dynstat_uvel_min             =  -3.2604220233985E-03
(PID.TID 0000.0001) %MON dynstat_uvel_mean            =  -9.9371109386496E-10
(PID.TID 0000.0001) %MON dynstat_uvel_sd              =   1.2247241114905E-04
(PID.TID 0000.0001) %MON dynstat_uvel_del2            =   2.8707648066681E-07
(PID.TID 0000.0001) %MON dynstat_vvel_max             =   3.4738728824093E-03
(PID.TID 0000.0001) %MON dynstat_vvel_min             =  -1.8230408396080E-03
(PID.TID 0000.0001) %MON dynstat_vvel_mean            =  -8.6659221816236E-08
(PID.TID 0000.0001) %MON dynstat_vvel_sd              =   1.0752384637788E-04
(PID.TID 0000.0001) %MON dynstat_vvel_del2            =   3.1766811499738E-07
(PID.TID 0000.0001) %MON dynstat_wvel_max             =   1.4408391261627E-04
(PID.TID 0000.0001) %MON dynstat_wvel_min             =  -1.0120256232320E-04
(PID.TID 0000.0001) %MON dynstat_wvel_mean            =   1.2623069262026E-10
(PID.TID 0000.0001) %MON dynstat_wvel_sd              =   1.6167843954614E-05
(PID.TID 0000.0001) %MON dynstat_wvel_del2            =   7.6768326764651E-08
(PID.TID 0000.0001) %MON dynstat_theta_max            =   1.2000000000000E+00
(PID.TID 0000.0001) %MON dynstat_theta_min            =  -1.0000000000000E+00
(PID.TID 0000.0001) %MON dynstat_theta_mean           =   5.6543037428023E-01
(PID.TID 0000.0001) %MON dynstat_theta_sd             =   8.4905270683921E-01
(PID.TID 0000.0001) %MON dynstat_theta_del2           =   9.3287834326804E-07
(PID.TID 0000.0001) %MON dynstat_salt_max             =   3.4700000000000E+01
(PID.TID 0000.0001) %MON dynstat_salt_min             =   3.4000000000000E+01
(PID.TID 0000.0001) %MON dynstat_salt_mean            =   3.4498085617423E+01
(PID.TID 0000.0001) %MON dynstat_salt_sd              =   2.7015375790093E-01
(PID.TID 0000.0001) %MON dynstat_salt_del2            =   3.1555534342867E-07
(PID.TID 0000.0001) %MON advcfl_uvel_max              =   3.2604220233985E-04
(PID.TID 0000.0001) %MON advcfl_vvel_max              =   3.4738728824093E-04
(PID.TID 0000.0001) %MON advcfl_wvel_max              =   7.2041956308135E-04
(PID.TID 0000.0001) %MON advcfl_W_hf_max              =   7.2041956308135E-04
(PID.TID 0000.0001) %MON pe_b_mean                    =  -6.8281994925001E-01
(PID.TID 0000.0001) %MON ke_max                       =   4.9366385805210E-06
(PID.TID 0000.0001) %MON ke_mean                      =   1.3139267596337E-08
(PID.TID 0000.0001) %MON ke_vol                       =   4.6182892656601E+12
(PID.TID 0000.0001) // =======================================================
(PID.TID 0000.0001) // End MONITOR dynamic field statistics
(PID.TID 0000.0001) // =======================================================
(PID.TID 0000.0001) // =======================================================
(PID.TID 0000.0001) // Begin OBCS MONITOR field statistics
(PID.TID 0000.0001) // =======================================================
(PID.TID 0000.0001) %MON obc_N_vVel_max               =  -9.3766667051587E-08
(PID.TID 0000.0001) %MON obc_N_vVel_min               =  -9.3766667051588E-08
(PID.TID 0000.0001) %MON obc_N_vVel_mean              =  -9.3766667051587E-08
(PID.TID 0000.0001) %MON obc_N_vVel_sd                =   1.9173136984672E-14
(PID.TID 0000.0001) %MON obc_N_vVel_Int               =  -6.1886000254047E+00
(PID.TID 0000.0001) // =======================================================
(PID.TID 0000.0001) // End OBCS MONITOR field statistics
(PID.TID 0000.0001) // =======================================================
 cg2d: Sum(rhs),rhsMax =   3.01204191711217E+00  4.53051479947945E+02
(PID.TID 0000.0001)      cg2d_init_res =   1.67486667250321E-06
(PID.TID 0000.0001)      cg2d_iters(min,last) =      -1      67
(PID.TID 0000.0001)      cg2d_last_res =   8.99222772378414E-12
(PID.TID 0000.0001) // =======================================================
(PID.TID 0000.0001) // Begin MONITOR dynamic field statistics
(PID.TID 0000.0001) // =======================================================
(PID.TID 0000.0001) %MON time_tsnumber                =                   367
(PID.TID 0000.0001) %MON time_secondsf                =   3.6700000000000E+04
(PID.TID 0000.0001) %MON dynstat_eta_max              =   5.7964983257793E+00
(PID.TID 0000.0001) %MON dynstat_eta_min              =  -1.4176836413861E+01
(PID.TID 0000.0001) %MON dynstat_eta_mean             =  -2.5270556448387E+00
(PID.TID 0000.0001) %MON dynstat_eta_sd               =   4.9419709335606E+00
(PID.TID 0000.0001) %MON dynstat_eta_del2             =   1.9058065666062E-01
(PID.TID 0000.0001) %MON dynstat_uvel_max             =   1.7143639675190E-03
(PID.TID 0000.0001) %MON dynstat_uvel_min             =  -3.2579756803308E-03
(PID.TID 0000.0001) %MON dynstat_uvel_mean            =  -1.0303979174829E-09
(PID.TID 0000.0001) %MON dynstat_uvel_sd              =   1.2284735666073E-04
(PID.TID 0000.0001) %MON dynstat_uvel_del2            =   2.8687603913808E-07
(PID.TID 0000.0001) %MON dynstat_vvel_max             =   3.4863024162570E-03
(PID.TID 0000.0001) %MON dynstat_vvel_min             =  -1.8267274145138E-03
(PID.TID 0000.0001) %MON dynstat_vvel_mean            =  -8.7412954998555E-08
(PID.TID 0000.0001) %MON dynstat_vvel_sd              =   1.0758928502515E-04
(PID.TID 0000.0001) %MON dynstat_vvel_del2            =   3.1729550212109E-07
(PID.TID 0000.0001) %MON dynstat_wvel_max             =   1.4344180155817E-04
(PID.TID 0000.0001) %MON dynstat_wvel_min             =  -1.0174310206586E-04
(PID.TID 0000.0001) %MON dynstat_wvel_mean            =   1.3077930770102E-10
(PID.TID 0000.0001) %MON dynstat_wvel_sd              =   1.6140219813781E-05
(PID.TID 0000.0001) %MON dynstat_wvel_del2            =   7.6622539323883E-08
(PID.TID 0000.0001) %MON dynstat_theta_max            =   1.2000000000000E+00
(PID.TID 0000.0001) %MON dynstat_theta_min            =  -1.0000000000000E+00
(PID.TID 0000.0001) %MON dynstat_theta_mean           =   5.6543016142439E-01
(PID.TID 0000.0001) %MON dynstat_theta_sd             =   8.4905265857866E-01
(PID.TID 0000.0001) %MON dynstat_theta_del2           =   9.3128809396086E-07
(PID.TID 0000.0001) %MON dynstat_salt_max             =   3.4700000000000E+01
(PID.TID 0000.0001) %MON dynstat_salt_min             =   3.4000000000000E+01
(PID.TID 0000.0001) %MON dynstat_salt_mean            =   3.4498085532997E+01
(PID.TID 0000.0001) %MON dynstat_salt_sd              =   2.7015374353851E-01
(PID.TID 0000.0001) %MON dynstat_salt_del2            =   3.1524268981572E-07
(PID.TID 0000.0001) %MON advcfl_uvel_max              =   3.2579756803308E-04
(PID.TID 0000.0001) %MON advcfl_vvel_max              =   3.4863024162570E-04
(PID.TID 0000.0001) %MON advcfl_wvel_max              =   7.1720900779084E-04
(PID.TID 0000.0001) %MON advcfl_W_hf_max              =   7.1720900779084E-04
(PID.TID 0000.0001) %MON pe_b_mean                    =  -6.8281942325857E-01
(PID.TID 0000.0001) %MON ke_max                       =   4.9355938734203E-06
(PID.TID 0000.0001) %MON ke_mean                      =   1.3191432035367E-08
(PID.TID 0000.0001) %MON ke_vol                       =   4.6182892775563E+12
(PID.TID 0000.0001) // =======================================================
(PID.TID 0000.0001) // End MONITOR dynamic field statistics
(PID.TID 0000.0001) // =======================================================
(PID.TID 0000.0001) // =======================================================
(PID.TID 0000.0001) // Begin OBCS MONITOR field statistics
(PID.TID 0000.0001) // =======================================================
(PID.TID 0000.0001) %MON obc_N_vVel_max               =  -9.4854673672840E-08
(PID.TID 0000.0001) %MON obc_N_vVel_min               =  -9.4854673672844E-08
(PID.TID 0000.0001) %MON obc_N_vVel_mean              =  -9.4854673672844E-08
(PID.TID 0000.0001) %MON obc_N_vVel_sd                =  -7.5257330358085E-28
(PID.TID 0000.0001) %MON obc_N_vVel_Int               =  -6.2604084624077E+00
(PID.TID 0000.0001) // =======================================================
(PID.TID 0000.0001) // End OBCS MONITOR field statistics
(PID.TID 0000.0001) // =======================================================
 cg2d: Sum(rhs),rhsMax =   3.01203957404450E+00  4.53051472413488E+02
(PID.TID 0000.0001)      cg2d_init_res =   1.67210278935869E-06
(PID.TID 0000.0001)      cg2d_iters(min,last) =      -1      67
(PID.TID 0000.0001)      cg2d_last_res =   9.03218118006129E-12
(PID.TID 0000.0001) // =======================================================
(PID.TID 0000.0001) // Begin MONITOR dynamic field statistics
(PID.TID 0000.0001) // =======================================================
(PID.TID 0000.0001) %MON time_tsnumber                =                   368
(PID.TID 0000.0001) %MON time_secondsf                =   3.6800000000000E+04
(PID.TID 0000.0001) %MON dynstat_eta_max              =   5.7965011033710E+00
(PID.TID 0000.0001) %MON dynstat_eta_min              =  -1.4176830905813E+01
(PID.TID 0000.0001) %MON dynstat_eta_mean             =  -2.5270536370158E+00
(PID.TID 0000.0001) %MON dynstat_eta_sd               =   4.9419702860006E+00
(PID.TID 0000.0001) %MON dynstat_eta_del2             =   1.9058065809846E-01
(PID.TID 0000.0001) %MON dynstat_uvel_max             =   1.7175042584974E-03
(PID.TID 0000.0001) %MON dynstat_uvel_min             =  -3.2555069997589E-03
(PID.TID 0000.0001) %MON dynstat_uvel_mean            =  -1.0683884697144E-09
(PID.TID 0000.0001) %MON dynstat_uvel_sd              =   1.2322250188161E-04
(PID.TID 0000.0001) %MON dynstat_uvel_del2            =   2.8668190156711E-07
(PID.TID 0000.0001) %MON dynstat_vvel_max             =   3.4987316873698E-03
(PID.TID 0000.0001) %MON dynstat_vvel_min             =  -1.8303797088137E-03
(PID.TID 0000.0001) %MON dynstat_vvel_mean            =  -8.7478926788269E-08
(PID.TID 0000.0001) %MON dynstat_vvel_sd              =   1.0765382022825E-04
(PID.TID 0000.0001) %MON dynstat_vvel_del2            =   3.1690991985225E-07
(PID.TID 0000.0001) %MON dynstat_wvel_max             =   1.4279923352957E-04
(PID.TID 0000.0001) %MON dynstat_wvel_min             =  -1.0228482393840E-04
(PID.TID 0000.0001) %MON dynstat_wvel_mean            =   1.3548721180301E-10
(PID.TID 0000.0001) %MON dynstat_wvel_sd              =   1.6110575691069E-05
(PID.TID 0000.0001) %MON dynstat_wvel_del2            =   7.6446230329570E-08
(PID.TID 0000.0001) %MON dynstat_theta_max            =   1.2000000000000E+00
(PID.TID 0000.0001) %MON dynstat_theta_min            =  -1.0000000000000E+00
(PID.TID 0000.0001) %MON dynstat_theta_mean           =   5.6542994835799E-01
(PID.TID 0000.0001) %MON dynstat_theta_sd             =   8.4905261016129E-01
(PID.TID 0000.0001) %MON dynstat_theta_del2           =   9.2973657495784E-07
(PID.TID 0000.0001) %MON dynstat_salt_max             =   3.4700000000000E+01
(PID.TID 0000.0001) %MON dynstat_salt_min             =   3.4000000000000E+01
(PID.TID 0000.0001) %MON dynstat_salt_mean            =   3.4498085448488E+01
(PID.TID 0000.0001) %MON dynstat_salt_sd              =   2.7015372911572E-01
(PID.TID 0000.0001) %MON dynstat_salt_del2            =   3.1494208072865E-07
(PID.TID 0000.0001) %MON advcfl_uvel_max              =   3.2555069997589E-04
(PID.TID 0000.0001) %MON advcfl_vvel_max              =   3.4987316873698E-04
(PID.TID 0000.0001) %MON advcfl_wvel_max              =   7.1399616764785E-04
(PID.TID 0000.0001) %MON advcfl_W_hf_max              =   7.1399616764785E-04
(PID.TID 0000.0001) %MON pe_b_mean                    =  -6.8281889675709E-01
(PID.TID 0000.0001) %MON ke_max                       =   4.9344755812280E-06
(PID.TID 0000.0001) %MON ke_mean                      =   1.3243665528258E-08
(PID.TID 0000.0001) %MON ke_vol                       =   4.6182892894697E+12
(PID.TID 0000.0001) // =======================================================
(PID.TID 0000.0001) // End MONITOR dynamic field statistics
(PID.TID 0000.0001) // =======================================================
(PID.TID 0000.0001) // =======================================================
(PID.TID 0000.0001) // Begin OBCS MONITOR field statistics
(PID.TID 0000.0001) // =======================================================
(PID.TID 0000.0001) %MON obc_N_vVel_max               =  -9.5324007739601E-08
(PID.TID 0000.0001) %MON obc_N_vVel_min               =  -9.5324007739604E-08
(PID.TID 0000.0001) %MON obc_N_vVel_mean              =  -9.5324007739601E-08
(PID.TID 0000.0001) %MON obc_N_vVel_sd                =   1.4915051970152E-14
(PID.TID 0000.0001) %MON obc_N_vVel_Int               =  -6.2913845108137E+00
(PID.TID 0000.0001) // =======================================================
(PID.TID 0000.0001) // End OBCS MONITOR field statistics
(PID.TID 0000.0001) // =======================================================
 cg2d: Sum(rhs),rhsMax =   3.01203722972689E+00  4.53051464794379E+02
(PID.TID 0000.0001)      cg2d_init_res =   1.66874658585619E-06
(PID.TID 0000.0001)      cg2d_iters(min,last) =      -1      67
(PID.TID 0000.0001)      cg2d_last_res =   9.08184510026757E-12
(PID.TID 0000.0001) // =======================================================
(PID.TID 0000.0001) // Begin MONITOR dynamic field statistics
(PID.TID 0000.0001) // =======================================================
(PID.TID 0000.0001) %MON time_tsnumber                =                   369
(PID.TID 0000.0001) %MON time_secondsf                =   3.6900000000000E+04
(PID.TID 0000.0001) %MON dynstat_eta_max              =   5.7965038812214E+00
(PID.TID 0000.0001) %MON dynstat_eta_min              =  -1.4176825394870E+01
(PID.TID 0000.0001) %MON dynstat_eta_mean             =  -2.5270516276722E+00
(PID.TID 0000.0001) %MON dynstat_eta_sd               =   4.9419696385551E+00
(PID.TID 0000.0001) %MON dynstat_eta_del2             =   1.9058065955324E-01
(PID.TID 0000.0001) %MON dynstat_uvel_max             =   1.7206366210232E-03
(PID.TID 0000.0001) %MON dynstat_uvel_min             =  -3.2530162440416E-03
(PID.TID 0000.0001) %MON dynstat_uvel_mean            =  -1.1066188417260E-09
(PID.TID 0000.0001) %MON dynstat_uvel_sd              =   1.2359783025480E-04
(PID.TID 0000.0001) %MON dynstat_uvel_del2            =   2.8649405002520E-07
(PID.TID 0000.0001) %MON dynstat_vvel_max             =   3.5111607941976E-03
(PID.TID 0000.0001) %MON dynstat_vvel_min             =  -1.8339975318691E-03
(PID.TID 0000.0001) %MON dynstat_vvel_mean            =  -8.6860584463280E-08
(PID.TID 0000.0001) %MON dynstat_vvel_sd              =   1.0771739002359E-04
(PID.TID 0000.0001) %MON dynstat_vvel_del2            =   3.1650997907081E-07
(PID.TID 0000.0001) %MON dynstat_wvel_max             =   1.4215624102693E-04
(PID.TID 0000.0001) %MON dynstat_wvel_min             =  -1.0282772801880E-04
(PID.TID 0000.0001) %MON dynstat_wvel_mean            =   1.4020241143700E-10
(PID.TID 0000.0001) %MON dynstat_wvel_sd              =   1.6078670073310E-05
(PID.TID 0000.0001) %MON dynstat_wvel_del2            =   7.6236475983608E-08
(PID.TID 0000.0001) %MON dynstat_theta_max            =   1.2000000000000E+00
(PID.TID 0000.0001) %MON dynstat_theta_min            =  -1.0000000000000E+00
(PID.TID 0000.0001) %MON dynstat_theta_mean           =   5.6542973507901E-01
(PID.TID 0000.0001) %MON dynstat_theta_sd             =   8.4905256157010E-01
(PID.TID 0000.0001) %MON dynstat_theta_del2           =   9.2822394729725E-07
(PID.TID 0000.0001) %MON dynstat_salt_max             =   3.4700000000000E+01
(PID.TID 0000.0001) %MON dynstat_salt_min             =   3.4000000000000E+01
(PID.TID 0000.0001) %MON dynstat_salt_mean            =   3.4498085363896E+01
(PID.TID 0000.0001) %MON dynstat_salt_sd              =   2.7015371462689E-01
(PID.TID 0000.0001) %MON dynstat_salt_del2            =   3.1465354902245E-07
(PID.TID 0000.0001) %MON advcfl_uvel_max              =   3.2530162440416E-04
(PID.TID 0000.0001) %MON advcfl_vvel_max              =   3.5111607941976E-04
(PID.TID 0000.0001) %MON advcfl_wvel_max              =   7.1078120513466E-04
(PID.TID 0000.0001) %MON advcfl_W_hf_max              =   7.1078120513466E-04
(PID.TID 0000.0001) %MON pe_b_mean                    =  -6.8281836988722E-01
(PID.TID 0000.0001) %MON ke_max                       =   4.9332841331461E-06
(PID.TID 0000.0001) %MON ke_mean                      =   1.3295959438483E-08
(PID.TID 0000.0001) %MON ke_vol                       =   4.6182893013961E+12
(PID.TID 0000.0001) // =======================================================
(PID.TID 0000.0001) // End MONITOR dynamic field statistics
(PID.TID 0000.0001) // =======================================================
(PID.TID 0000.0001) // =======================================================
(PID.TID 0000.0001) // Begin OBCS MONITOR field statistics
(PID.TID 0000.0001) // =======================================================
(PID.TID 0000.0001) %MON obc_N_vVel_max               =  -9.5164588473495E-08
(PID.TID 0000.0001) %MON obc_N_vVel_min               =  -9.5164588473496E-08
(PID.TID 0000.0001) %MON obc_N_vVel_mean              =  -9.5164588473495E-08
(PID.TID 0000.0001) %MON obc_N_vVel_sd                =   1.6521073609378E-14
(PID.TID 0000.0001) %MON obc_N_vVel_Int               =  -6.2808628392507E+00
(PID.TID 0000.0001) // =======================================================
(PID.TID 0000.0001) // End OBCS MONITOR field statistics
(PID.TID 0000.0001) // =======================================================
 cg2d: Sum(rhs),rhsMax =   3.01203488517297E+00  4.53051457060158E+02
(PID.TID 0000.0001)      cg2d_init_res =   1.66478766335597E-06
(PID.TID 0000.0001)      cg2d_iters(min,last) =      -1      67
(PID.TID 0000.0001)      cg2d_last_res =   9.13245160036936E-12
(PID.TID 0000.0001) // =======================================================
(PID.TID 0000.0001) // Begin MONITOR dynamic field statistics
(PID.TID 0000.0001) // =======================================================
(PID.TID 0000.0001) %MON time_tsnumber                =                   370
(PID.TID 0000.0001) %MON time_secondsf                =   3.7000000000000E+04
(PID.TID 0000.0001) %MON dynstat_eta_max              =   5.7965066581901E+00
(PID.TID 0000.0001) %MON dynstat_eta_min              =  -1.4176819882387E+01
(PID.TID 0000.0001) %MON dynstat_eta_mean             =  -2.5270496174882E+00
(PID.TID 0000.0001) %MON dynstat_eta_sd               =   4.9419689914303E+00
(PID.TID 0000.0001) %MON dynstat_eta_del2             =   1.9058066102493E-01
(PID.TID 0000.0001) %MON dynstat_uvel_max             =   1.7237612549934E-03
(PID.TID 0000.0001) %MON dynstat_uvel_min             =  -3.2505036738559E-03
(PID.TID 0000.0001) %MON dynstat_uvel_mean            =  -1.1440338732000E-09
(PID.TID 0000.0001) %MON dynstat_uvel_sd              =   1.2397332553662E-04
(PID.TID 0000.0001) %MON dynstat_uvel_del2            =   2.8631246785528E-07
(PID.TID 0000.0001) %MON dynstat_vvel_max             =   3.5235898305139E-03
(PID.TID 0000.0001) %MON dynstat_vvel_min             =  -1.8375807074200E-03
(PID.TID 0000.0001) %MON dynstat_vvel_mean            =  -8.5583515231381E-08
(PID.TID 0000.0001) %MON dynstat_vvel_sd              =   1.0778003154476E-04
(PID.TID 0000.0001) %MON dynstat_vvel_del2            =   3.1609665360332E-07
(PID.TID 0000.0001) %MON dynstat_wvel_max             =   1.4151285663090E-04
(PID.TID 0000.0001) %MON dynstat_wvel_min             =  -1.0337181414761E-04
(PID.TID 0000.0001) %MON dynstat_wvel_mean            =   1.4477401145657E-10
(PID.TID 0000.0001) %MON dynstat_wvel_sd              =   1.6044566901357E-05
(PID.TID 0000.0001) %MON dynstat_wvel_del2            =   7.5994716959487E-08
(PID.TID 0000.0001) %MON dynstat_theta_max            =   1.2000000000000E+00
(PID.TID 0000.0001) %MON dynstat_theta_min            =  -1.0000000000000E+00
(PID.TID 0000.0001) %MON dynstat_theta_mean           =   5.6542952158557E-01
(PID.TID 0000.0001) %MON dynstat_theta_sd             =   8.4905251283276E-01
(PID.TID 0000.0001) %MON dynstat_theta_del2           =   9.2674814284723E-07
(PID.TID 0000.0001) %MON dynstat_salt_max             =   3.4700000000000E+01
(PID.TID 0000.0001) %MON dynstat_salt_min             =   3.4000000000000E+01
(PID.TID 0000.0001) %MON dynstat_salt_mean            =   3.4498085279220E+01
(PID.TID 0000.0001) %MON dynstat_salt_sd              =   2.7015370008103E-01
(PID.TID 0000.0001) %MON dynstat_salt_del2            =   3.1437646170239E-07
(PID.TID 0000.0001) %MON advcfl_uvel_max              =   3.2505036738559E-04
(PID.TID 0000.0001) %MON advcfl_vvel_max              =   3.5235898305139E-04
(PID.TID 0000.0001) %MON advcfl_wvel_max              =   7.0756428315448E-04
(PID.TID 0000.0001) %MON advcfl_W_hf_max              =   7.0756428315448E-04
(PID.TID 0000.0001) %MON pe_b_mean                    =  -6.8281784278425E-01
(PID.TID 0000.0001) %MON ke_max                       =   4.9320199369120E-06
(PID.TID 0000.0001) %MON ke_mean                      =   1.3348315813945E-08
(PID.TID 0000.0001) %MON ke_vol                       =   4.6182893133316E+12
(PID.TID 0000.0001) // =======================================================
(PID.TID 0000.0001) // End MONITOR dynamic field statistics
(PID.TID 0000.0001) // =======================================================
(PID.TID 0000.0001) // =======================================================
(PID.TID 0000.0001) // Begin OBCS MONITOR field statistics
(PID.TID 0000.0001) // =======================================================
(PID.TID 0000.0001) %MON obc_N_vVel_max               =  -9.4386774698731E-08
(PID.TID 0000.0001) %MON obc_N_vVel_min               =  -9.4386774698734E-08
(PID.TID 0000.0001) %MON obc_N_vVel_mean              =  -9.4386774698731E-08
(PID.TID 0000.0001) %MON obc_N_vVel_sd                =   1.5072887603364E-14
(PID.TID 0000.0001) %MON obc_N_vVel_Int               =  -6.2295271301162E+00
(PID.TID 0000.0001) // =======================================================
(PID.TID 0000.0001) // End OBCS MONITOR field statistics
(PID.TID 0000.0001) // =======================================================
 cg2d: Sum(rhs),rhsMax =   3.01203254131839E+00  4.53051449181158E+02
(PID.TID 0000.0001)      cg2d_init_res =   1.66027143147597E-06
(PID.TID 0000.0001)      cg2d_iters(min,last) =      -1      67
(PID.TID 0000.0001)      cg2d_last_res =   9.17588330984366E-12
(PID.TID 0000.0001) // =======================================================
(PID.TID 0000.0001) // Begin MONITOR dynamic field statistics
(PID.TID 0000.0001) // =======================================================
(PID.TID 0000.0001) %MON time_tsnumber                =                   371
(PID.TID 0000.0001) %MON time_secondsf                =   3.7100000000000E+04
(PID.TID 0000.0001) %MON dynstat_eta_max              =   5.7965094332291E+00
(PID.TID 0000.0001) %MON dynstat_eta_min              =  -1.4176814369600E+01
(PID.TID 0000.0001) %MON dynstat_eta_mean             =  -2.5270476070835E+00
(PID.TID 0000.0001) %MON dynstat_eta_sd               =   4.9419683447831E+00
(PID.TID 0000.0001) %MON dynstat_eta_del2             =   1.9058066251334E-01
(PID.TID 0000.0001) %MON dynstat_uvel_max             =   1.7268783582001E-03
(PID.TID 0000.0001) %MON dynstat_uvel_min             =  -3.2479695483136E-03
(PID.TID 0000.0001) %MON dynstat_uvel_mean            =  -1.1796135132235E-09
(PID.TID 0000.0001) %MON dynstat_uvel_sd              =   1.2434897180158E-04
(PID.TID 0000.0001) %MON dynstat_uvel_del2            =   2.8613713971311E-07
(PID.TID 0000.0001) %MON dynstat_vvel_max             =   3.5360188858826E-03
(PID.TID 0000.0001) %MON dynstat_vvel_min             =  -1.8411290722122E-03
(PID.TID 0000.0001) %MON dynstat_vvel_mean            =  -8.3694333180671E-08
(PID.TID 0000.0001) %MON dynstat_vvel_sd              =   1.0784187597907E-04
(PID.TID 0000.0001) %MON dynstat_vvel_del2            =   3.1567313339547E-07
(PID.TID 0000.0001) %MON dynstat_wvel_max             =   1.4086911312205E-04
(PID.TID 0000.0001) %MON dynstat_wvel_min             =  -1.0391708193551E-04
(PID.TID 0000.0001) %MON dynstat_wvel_mean            =   1.4905794821538E-10
(PID.TID 0000.0001) %MON dynstat_wvel_sd              =   1.6008622689122E-05
(PID.TID 0000.0001) %MON dynstat_wvel_del2            =   7.5726512139323E-08
(PID.TID 0000.0001) %MON dynstat_theta_max            =   1.2000000000000E+00
(PID.TID 0000.0001) %MON dynstat_theta_min            =  -1.0000000000000E+00
(PID.TID 0000.0001) %MON dynstat_theta_mean           =   5.6542930787269E-01
(PID.TID 0000.0001) %MON dynstat_theta_sd             =   8.4905246398646E-01
(PID.TID 0000.0001) %MON dynstat_theta_del2           =   9.2530506317821E-07
(PID.TID 0000.0001) %MON dynstat_salt_max             =   3.4700000000000E+01
(PID.TID 0000.0001) %MON dynstat_salt_min             =   3.4000000000000E+01
(PID.TID 0000.0001) %MON dynstat_salt_mean            =   3.4498085194458E+01
(PID.TID 0000.0001) %MON dynstat_salt_sd              =   2.7015368548978E-01
(PID.TID 0000.0001) %MON dynstat_salt_del2            =   3.1410960646892E-07
(PID.TID 0000.0001) %MON advcfl_uvel_max              =   3.2479695483136E-04
(PID.TID 0000.0001) %MON advcfl_vvel_max              =   3.5360188858826E-04
(PID.TID 0000.0001) %MON advcfl_wvel_max              =   7.0434556561025E-04
(PID.TID 0000.0001) %MON advcfl_W_hf_max              =   7.0434556561025E-04
(PID.TID 0000.0001) %MON pe_b_mean                    =  -6.8281731556219E-01
(PID.TID 0000.0001) %MON ke_max                       =   4.9306833809131E-06
(PID.TID 0000.0001) %MON ke_mean                      =   1.3400746875052E-08
(PID.TID 0000.0001) %MON ke_vol                       =   4.6182893252721E+12
(PID.TID 0000.0001) // =======================================================
(PID.TID 0000.0001) // End MONITOR dynamic field statistics
(PID.TID 0000.0001) // =======================================================
(PID.TID 0000.0001) // =======================================================
(PID.TID 0000.0001) // Begin OBCS MONITOR field statistics
(PID.TID 0000.0001) // =======================================================
(PID.TID 0000.0001) %MON obc_N_vVel_max               =  -9.3020825088226E-08
(PID.TID 0000.0001) %MON obc_N_vVel_min               =  -9.3020825088229E-08
(PID.TID 0000.0001) %MON obc_N_vVel_mean              =  -9.3020825088226E-08
(PID.TID 0000.0001) %MON obc_N_vVel_sd                =   1.9740751940572E-14
(PID.TID 0000.0001) %MON obc_N_vVel_Int               =  -6.1393744558229E+00
(PID.TID 0000.0001) // =======================================================
(PID.TID 0000.0001) // End OBCS MONITOR field statistics
(PID.TID 0000.0001) // =======================================================
 cg2d: Sum(rhs),rhsMax =   3.01203019904241E+00  4.53051441128984E+02
(PID.TID 0000.0001)      cg2d_init_res =   1.65534869564601E-06
(PID.TID 0000.0001)      cg2d_iters(min,last) =      -1      67
(PID.TID 0000.0001)      cg2d_last_res =   9.20576920786005E-12
(PID.TID 0000.0001) // =======================================================
(PID.TID 0000.0001) // Begin MONITOR dynamic field statistics
(PID.TID 0000.0001) // =======================================================
(PID.TID 0000.0001) %MON time_tsnumber                =                   372
(PID.TID 0000.0001) %MON time_secondsf                =   3.7200000000000E+04
(PID.TID 0000.0001) %MON dynstat_eta_max              =   5.7965122053790E+00
(PID.TID 0000.0001) %MON dynstat_eta_min              =  -1.4176808857632E+01
(PID.TID 0000.0001) %MON dynstat_eta_mean             =  -2.5270455970374E+00
(PID.TID 0000.0001) %MON dynstat_eta_sd               =   4.9419676987616E+00
(PID.TID 0000.0001) %MON dynstat_eta_del2             =   1.9058066401866E-01
(PID.TID 0000.0001) %MON dynstat_uvel_max             =   1.7299881257848E-03
(PID.TID 0000.0001) %MON dynstat_uvel_min             =  -3.2454141254039E-03
(PID.TID 0000.0001) %MON dynstat_uvel_mean            =  -1.2124112123517E-09
(PID.TID 0000.0001) %MON dynstat_uvel_sd              =   1.2472475345511E-04
(PID.TID 0000.0001) %MON dynstat_uvel_del2            =   2.8596805146075E-07
(PID.TID 0000.0001) %MON dynstat_vvel_max             =   3.5484480455203E-03
(PID.TID 0000.0001) %MON dynstat_vvel_min             =  -1.8446424754304E-03
(PID.TID 0000.0001) %MON dynstat_vvel_mean            =  -8.1258862280354E-08
(PID.TID 0000.0001) %MON dynstat_vvel_sd              =   1.0790313152224E-04
(PID.TID 0000.0001) %MON dynstat_vvel_del2            =   3.1524439807091E-07
(PID.TID 0000.0001) %MON dynstat_wvel_max             =   1.4022504358252E-04
(PID.TID 0000.0001) %MON dynstat_wvel_min             =  -1.0446353102959E-04
(PID.TID 0000.0001) %MON dynstat_wvel_mean            =   1.5292128455608E-10
(PID.TID 0000.0001) %MON dynstat_wvel_sd              =   1.5971436453804E-05
(PID.TID 0000.0001) %MON dynstat_wvel_del2            =   7.5440779062593E-08
(PID.TID 0000.0001) %MON dynstat_theta_max            =   1.2000000000000E+00
(PID.TID 0000.0001) %MON dynstat_theta_min            =  -1.0000000000000E+00
(PID.TID 0000.0001) %MON dynstat_theta_mean           =   5.6542909393695E-01
(PID.TID 0000.0001) %MON dynstat_theta_sd             =   8.4905241506859E-01
(PID.TID 0000.0001) %MON dynstat_theta_del2           =   9.2388916726220E-07
(PID.TID 0000.0001) %MON dynstat_salt_max             =   3.4700000000000E+01
(PID.TID 0000.0001) %MON dynstat_salt_min             =   3.4000000000000E+01
(PID.TID 0000.0001) %MON dynstat_salt_mean            =   3.4498085109610E+01
(PID.TID 0000.0001) %MON dynstat_salt_sd              =   2.7015367086487E-01
(PID.TID 0000.0001) %MON dynstat_salt_del2            =   3.1385134750244E-07
(PID.TID 0000.0001) %MON advcfl_uvel_max              =   3.2454141254039E-04
(PID.TID 0000.0001) %MON advcfl_vvel_max              =   3.5484480455203E-04
(PID.TID 0000.0001) %MON advcfl_wvel_max              =   7.0112521791259E-04
(PID.TID 0000.0001) %MON advcfl_W_hf_max              =   7.0112521791259E-04
(PID.TID 0000.0001) %MON pe_b_mean                    =  -6.8281678832653E-01
(PID.TID 0000.0001) %MON ke_max                       =   4.9292748354081E-06
(PID.TID 0000.0001) %MON ke_mean                      =   1.3453273205314E-08
(PID.TID 0000.0001) %MON ke_vol                       =   4.6182893372139E+12
(PID.TID 0000.0001) // =======================================================
(PID.TID 0000.0001) // End MONITOR dynamic field statistics
(PID.TID 0000.0001) // =======================================================
(PID.TID 0000.0001) // =======================================================
(PID.TID 0000.0001) // Begin OBCS MONITOR field statistics
(PID.TID 0000.0001) // =======================================================
(PID.TID 0000.0001) %MON obc_N_vVel_max               =  -9.1115572645052E-08
(PID.TID 0000.0001) %MON obc_N_vVel_min               =  -9.1115572645054E-08
(PID.TID 0000.0001) %MON obc_N_vVel_mean              =  -9.1115572645052E-08
(PID.TID 0000.0001) %MON obc_N_vVel_sd                =   1.6991853674949E-14
(PID.TID 0000.0001) %MON obc_N_vVel_Int               =  -6.0136277945734E+00
(PID.TID 0000.0001) // =======================================================
(PID.TID 0000.0001) // End OBCS MONITOR field statistics
(PID.TID 0000.0001) // =======================================================
 cg2d: Sum(rhs),rhsMax =   3.01202785913757E+00  4.53051432877161E+02
(PID.TID 0000.0001)      cg2d_init_res =   1.65023652246013E-06
(PID.TID 0000.0001)      cg2d_iters(min,last) =      -1      67
(PID.TID 0000.0001)      cg2d_last_res =   9.22260175669904E-12
(PID.TID 0000.0001) // =======================================================
(PID.TID 0000.0001) // Begin MONITOR dynamic field statistics
(PID.TID 0000.0001) // =======================================================
(PID.TID 0000.0001) %MON time_tsnumber                =                   373
(PID.TID 0000.0001) %MON time_secondsf                =   3.7300000000000E+04
(PID.TID 0000.0001) %MON dynstat_eta_max              =   5.7965149738039E+00
(PID.TID 0000.0001) %MON dynstat_eta_min              =  -1.4176803347459E+01
(PID.TID 0000.0001) %MON dynstat_eta_mean             =  -2.5270435878670E+00
(PID.TID 0000.0001) %MON dynstat_eta_sd               =   4.9419670534781E+00
(PID.TID 0000.0001) %MON dynstat_eta_del2             =   1.9058066554099E-01
(PID.TID 0000.0001) %MON dynstat_uvel_max             =   1.7330907507596E-03
(PID.TID 0000.0001) %MON dynstat_uvel_min             =  -3.2428376620093E-03
(PID.TID 0000.0001) %MON dynstat_uvel_mean            =  -1.2415867743163E-09
(PID.TID 0000.0001) %MON dynstat_uvel_sd              =   1.2510065523737E-04
(PID.TID 0000.0001) %MON dynstat_uvel_del2            =   2.8580518994413E-07
(PID.TID 0000.0001) %MON dynstat_vvel_max             =   3.5608773914477E-03
(PID.TID 0000.0001) %MON dynstat_vvel_min             =  -1.8481207767653E-03
(PID.TID 0000.0001) %MON dynstat_vvel_mean            =  -7.8359765938643E-08
(PID.TID 0000.0001) %MON dynstat_vvel_sd              =   1.0796405646638E-04
(PID.TID 0000.0001) %MON dynstat_vvel_del2            =   3.1481656907276E-07
(PID.TID 0000.0001) %MON dynstat_wvel_max             =   1.3958068106604E-04
(PID.TID 0000.0001) %MON dynstat_wvel_min             =  -1.0501116120739E-04
(PID.TID 0000.0001) %MON dynstat_wvel_mean            =   1.5624481896709E-10
(PID.TID 0000.0001) %MON dynstat_wvel_sd              =   1.5933769232079E-05
(PID.TID 0000.0001) %MON dynstat_wvel_del2            =   7.5148616239429E-08
(PID.TID 0000.0001) %MON dynstat_theta_max            =   1.2000000000000E+00
(PID.TID 0000.0001) %MON dynstat_theta_min            =  -1.0000000000000E+00
(PID.TID 0000.0001) %MON dynstat_theta_mean           =   5.6542887977601E-01
(PID.TID 0000.0001) %MON dynstat_theta_sd             =   8.4905236608783E-01
(PID.TID 0000.0001) %MON dynstat_theta_del2           =   9.2249428844521E-07
(PID.TID 0000.0001) %MON dynstat_salt_max             =   3.4700000000000E+01
(PID.TID 0000.0001) %MON dynstat_salt_min             =   3.4000000000000E+01
(PID.TID 0000.0001) %MON dynstat_salt_mean            =   3.4498085024673E+01
(PID.TID 0000.0001) %MON dynstat_salt_sd              =   2.7015365620915E-01
(PID.TID 0000.0001) %MON dynstat_salt_del2            =   3.1359986055942E-07
(PID.TID 0000.0001) %MON advcfl_uvel_max              =   3.2428376620093E-04
(PID.TID 0000.0001) %MON advcfl_vvel_max              =   3.5608773914477E-04
(PID.TID 0000.0001) %MON advcfl_wvel_max              =   6.9790340533018E-04
(PID.TID 0000.0001) %MON advcfl_W_hf_max              =   6.9790340533018E-04
(PID.TID 0000.0001) %MON pe_b_mean                    =  -6.8281626116753E-01
(PID.TID 0000.0001) %MON ke_max                       =   4.9277946554740E-06
(PID.TID 0000.0001) %MON ke_mean                      =   1.3505920868737E-08
(PID.TID 0000.0001) %MON ke_vol                       =   4.6182893491536E+12
(PID.TID 0000.0001) // =======================================================
(PID.TID 0000.0001) // End MONITOR dynamic field statistics
(PID.TID 0000.0001) // =======================================================
(PID.TID 0000.0001) // =======================================================
(PID.TID 0000.0001) // Begin OBCS MONITOR field statistics
(PID.TID 0000.0001) // =======================================================
(PID.TID 0000.0001) %MON obc_N_vVel_max               =  -8.8736569290471E-08
(PID.TID 0000.0001) %MON obc_N_vVel_min               =  -8.8736569290472E-08
(PID.TID 0000.0001) %MON obc_N_vVel_mean              =  -8.8736569290471E-08
(PID.TID 0000.0001) %MON obc_N_vVel_sd                =   1.2370893888999E-14
(PID.TID 0000.0001) %MON obc_N_vVel_Int               =  -5.8566135731711E+00
(PID.TID 0000.0001) // =======================================================
(PID.TID 0000.0001) // End OBCS MONITOR field statistics
(PID.TID 0000.0001) // =======================================================
 cg2d: Sum(rhs),rhsMax =   3.01202552226697E+00  4.53051424401692E+02
(PID.TID 0000.0001)      cg2d_init_res =   1.64515133678324E-06
(PID.TID 0000.0001)      cg2d_iters(min,last) =      -1      67
(PID.TID 0000.0001)      cg2d_last_res =   9.23834340879882E-12
(PID.TID 0000.0001) // =======================================================
(PID.TID 0000.0001) // Begin MONITOR dynamic field statistics
(PID.TID 0000.0001) // =======================================================
(PID.TID 0000.0001) %MON time_tsnumber                =                   374
(PID.TID 0000.0001) %MON time_secondsf                =   3.7400000000000E+04
(PID.TID 0000.0001) %MON dynstat_eta_max              =   5.7965177378634E+00
(PID.TID 0000.0001) %MON dynstat_eta_min              =  -1.4176797839782E+01
(PID.TID 0000.0001) %MON dynstat_eta_mean             =  -2.5270415799950E+00
(PID.TID 0000.0001) %MON dynstat_eta_sd               =   4.9419664089951E+00
(PID.TID 0000.0001) %MON dynstat_eta_del2             =   1.9058066707989E-01
(PID.TID 0000.0001) %MON dynstat_uvel_max             =   1.7361864243650E-03
(PID.TID 0000.0001) %MON dynstat_uvel_min             =  -3.2402404139233E-03
(PID.TID 0000.0001) %MON dynstat_uvel_mean            =  -1.2664358644250E-09
(PID.TID 0000.0001) %MON dynstat_uvel_sd              =   1.2547666220174E-04
(PID.TID 0000.0001) %MON dynstat_uvel_del2            =   2.8564854240616E-07
(PID.TID 0000.0001) %MON dynstat_vvel_max             =   3.5733070027586E-03
(PID.TID 0000.0001) %MON dynstat_vvel_min             =  -1.8515638456176E-03
(PID.TID 0000.0001) %MON dynstat_vvel_mean            =  -7.5093658313217E-08
(PID.TID 0000.0001) %MON dynstat_vvel_sd              =   1.0802492659444E-04
(PID.TID 0000.0001) %MON dynstat_vvel_del2            =   3.1439613148254E-07
(PID.TID 0000.0001) %MON dynstat_wvel_max             =   1.3893605836826E-04
(PID.TID 0000.0001) %MON dynstat_wvel_min             =  -1.0555997173149E-04
(PID.TID 0000.0001) %MON dynstat_wvel_mean            =   1.5892841043165E-10
(PID.TID 0000.0001) %MON dynstat_wvel_sd              =   1.5896444511667E-05
(PID.TID 0000.0001) %MON dynstat_wvel_del2            =   7.4861859044618E-08
(PID.TID 0000.0001) %MON dynstat_theta_max            =   1.2000000000000E+00
(PID.TID 0000.0001) %MON dynstat_theta_min            =  -1.0000000000000E+00
(PID.TID 0000.0001) %MON dynstat_theta_mean           =   5.6542866538684E-01
(PID.TID 0000.0001) %MON dynstat_theta_sd             =   8.4905231703557E-01
(PID.TID 0000.0001) %MON dynstat_theta_del2           =   9.2111420866859E-07
(PID.TID 0000.0001) %MON dynstat_salt_max             =   3.4700000000000E+01
(PID.TID 0000.0001) %MON dynstat_salt_min             =   3.4000000000000E+01
(PID.TID 0000.0001) %MON dynstat_salt_mean            =   3.4498084939648E+01
(PID.TID 0000.0001) %MON dynstat_salt_sd              =   2.7015364151976E-01
(PID.TID 0000.0001) %MON dynstat_salt_del2            =   3.1335329007665E-07
(PID.TID 0000.0001) %MON advcfl_uvel_max              =   3.2402404139233E-04
(PID.TID 0000.0001) %MON advcfl_vvel_max              =   3.5733070027586E-04
(PID.TID 0000.0001) %MON advcfl_wvel_max              =   6.9468029184128E-04
(PID.TID 0000.0001) %MON advcfl_W_hf_max              =   6.9468029184128E-04
(PID.TID 0000.0001) %MON pe_b_mean                    =  -6.8281573415200E-01
(PID.TID 0000.0001) %MON ke_max                       =   4.9262431834484E-06
(PID.TID 0000.0001) %MON ke_mean                      =   1.3558717899280E-08
(PID.TID 0000.0001) %MON ke_vol                       =   4.6182893610881E+12
(PID.TID 0000.0001) // =======================================================
(PID.TID 0000.0001) // End MONITOR dynamic field statistics
(PID.TID 0000.0001) // =======================================================
(PID.TID 0000.0001) // =======================================================
(PID.TID 0000.0001) // Begin OBCS MONITOR field statistics
(PID.TID 0000.0001) // =======================================================
(PID.TID 0000.0001) %MON obc_N_vVel_max               =  -8.5963897131764E-08
(PID.TID 0000.0001) %MON obc_N_vVel_min               =  -8.5963897131764E-08
(PID.TID 0000.0001) %MON obc_N_vVel_mean              =  -8.5963897131764E-08
(PID.TID 0000.0001) %MON obc_N_vVel_sd                =   1.5020460009374E-14
(PID.TID 0000.0001) %MON obc_N_vVel_Int               =  -5.6736172106964E+00
(PID.TID 0000.0001) // =======================================================
(PID.TID 0000.0001) // End OBCS MONITOR field statistics
(PID.TID 0000.0001) // =======================================================
 cg2d: Sum(rhs),rhsMax =   3.01202318893956E+00  4.53051415681590E+02
(PID.TID 0000.0001)      cg2d_init_res =   1.64032739893326E-06
(PID.TID 0000.0001)      cg2d_iters(min,last) =      -1      67
(PID.TID 0000.0001)      cg2d_last_res =   9.25140813470843E-12
(PID.TID 0000.0001) // =======================================================
(PID.TID 0000.0001) // Begin MONITOR dynamic field statistics
(PID.TID 0000.0001) // =======================================================
(PID.TID 0000.0001) %MON time_tsnumber                =                   375
(PID.TID 0000.0001) %MON time_secondsf                =   3.7500000000000E+04
(PID.TID 0000.0001) %MON dynstat_eta_max              =   5.7965204971292E+00
(PID.TID 0000.0001) %MON dynstat_eta_min              =  -1.4176792335033E+01
(PID.TID 0000.0001) %MON dynstat_eta_mean             =  -2.5270395737312E+00
(PID.TID 0000.0001) %MON dynstat_eta_sd               =   4.9419657653367E+00
(PID.TID 0000.0001) %MON dynstat_eta_del2             =   1.9058066863522E-01
(PID.TID 0000.0001) %MON dynstat_uvel_max             =   1.7392753360692E-03
(PID.TID 0000.0001) %MON dynstat_uvel_min             =  -3.2376226365560E-03
(PID.TID 0000.0001) %MON dynstat_uvel_mean            =  -1.2864010098549E-09
(PID.TID 0000.0001) %MON dynstat_uvel_sd              =   1.2585275971956E-04
(PID.TID 0000.0001) %MON dynstat_uvel_del2            =   2.8549809628310E-07
(PID.TID 0000.0001) %MON dynstat_vvel_max             =   3.5857369562011E-03
(PID.TID 0000.0001) %MON dynstat_vvel_min             =  -1.8549715589460E-03
(PID.TID 0000.0001) %MON dynstat_vvel_mean            =  -7.1567800076372E-08
(PID.TID 0000.0001) %MON dynstat_vvel_sd              =   1.0808600097021E-04
(PID.TID 0000.0001) %MON dynstat_vvel_del2            =   3.1398912673035E-07
(PID.TID 0000.0001) %MON dynstat_wvel_max             =   1.3829120849131E-04
(PID.TID 0000.0001) %MON dynstat_wvel_min             =  -1.0610996163851E-04
(PID.TID 0000.0001) %MON dynstat_wvel_mean            =   1.6089563412640E-10
(PID.TID 0000.0001) %MON dynstat_wvel_sd              =   1.5860242468970E-05
(PID.TID 0000.0001) %MON dynstat_wvel_del2            =   7.4591550529735E-08
(PID.TID 0000.0001) %MON dynstat_theta_max            =   1.2000000000000E+00
(PID.TID 0000.0001) %MON dynstat_theta_min            =  -1.0000000000000E+00
(PID.TID 0000.0001) %MON dynstat_theta_mean           =   5.6542845076516E-01
(PID.TID 0000.0001) %MON dynstat_theta_sd             =   8.4905226790858E-01
(PID.TID 0000.0001) %MON dynstat_theta_del2           =   9.1974353955405E-07
(PID.TID 0000.0001) %MON dynstat_salt_max             =   3.4700000000000E+01
(PID.TID 0000.0001) %MON dynstat_salt_min             =   3.4000000000000E+01
(PID.TID 0000.0001) %MON dynstat_salt_mean            =   3.4498084854532E+01
(PID.TID 0000.0001) %MON dynstat_salt_sd              =   2.7015362679566E-01
(PID.TID 0000.0001) %MON dynstat_salt_del2            =   3.1311005408412E-07
(PID.TID 0000.0001) %MON advcfl_uvel_max              =   3.2376226365560E-04
(PID.TID 0000.0001) %MON advcfl_vvel_max              =   3.5857369562011E-04
(PID.TID 0000.0001) %MON advcfl_wvel_max              =   6.9145604245655E-04
(PID.TID 0000.0001) %MON advcfl_W_hf_max              =   6.9145604245655E-04
(PID.TID 0000.0001) %MON pe_b_mean                    =  -6.8281520732041E-01
(PID.TID 0000.0001) %MON ke_max                       =   4.9246207535476E-06
(PID.TID 0000.0001) %MON ke_mean                      =   1.3611690608333E-08
(PID.TID 0000.0001) %MON ke_vol                       =   4.6182893730148E+12
(PID.TID 0000.0001) // =======================================================
(PID.TID 0000.0001) // End MONITOR dynamic field statistics
(PID.TID 0000.0001) // =======================================================
(PID.TID 0000.0001) // =======================================================
(PID.TID 0000.0001) // Begin OBCS MONITOR field statistics
(PID.TID 0000.0001) // =======================================================
(PID.TID 0000.0001) %MON obc_N_vVel_max               =  -8.2889380650803E-08
(PID.TID 0000.0001) %MON obc_N_vVel_min               =  -8.2889380650803E-08
(PID.TID 0000.0001) %MON obc_N_vVel_mean              =  -8.2889380650803E-08
(PID.TID 0000.0001) %MON obc_N_vVel_sd                =  -1.0728508311006E-28
(PID.TID 0000.0001) %MON obc_N_vVel_Int               =  -5.4706991229530E+00
(PID.TID 0000.0001) // =======================================================
(PID.TID 0000.0001) // End OBCS MONITOR field statistics
(PID.TID 0000.0001) // =======================================================
 cg2d: Sum(rhs),rhsMax =   3.01202085953323E+00  4.53051406699366E+02
(PID.TID 0000.0001)      cg2d_init_res =   1.63599038534257E-06
(PID.TID 0000.0001)      cg2d_iters(min,last) =      -1      67
(PID.TID 0000.0001)      cg2d_last_res =   9.26042840999933E-12
(PID.TID 0000.0001) // =======================================================
(PID.TID 0000.0001) // Begin MONITOR dynamic field statistics
(PID.TID 0000.0001) // =======================================================
(PID.TID 0000.0001) %MON time_tsnumber                =                   376
(PID.TID 0000.0001) %MON time_secondsf                =   3.7600000000000E+04
(PID.TID 0000.0001) %MON dynstat_eta_max              =   5.7965232513622E+00
(PID.TID 0000.0001) %MON dynstat_eta_min              =  -1.4176786833439E+01
(PID.TID 0000.0001) %MON dynstat_eta_mean             =  -2.5270375692951E+00
(PID.TID 0000.0001) %MON dynstat_eta_sd               =   4.9419651224859E+00
(PID.TID 0000.0001) %MON dynstat_eta_del2             =   1.9058067020680E-01
(PID.TID 0000.0001) %MON dynstat_uvel_max             =   1.7423576729989E-03
(PID.TID 0000.0001) %MON dynstat_uvel_min             =  -3.2505782618975E-03
(PID.TID 0000.0001) %MON dynstat_uvel_mean            =  -1.3010780663039E-09
(PID.TID 0000.0001) %MON dynstat_uvel_sd              =   1.2622893345732E-04
(PID.TID 0000.0001) %MON dynstat_uvel_del2            =   2.8535383883107E-07
(PID.TID 0000.0001) %MON dynstat_vvel_max             =   3.5981673267824E-03
(PID.TID 0000.0001) %MON dynstat_vvel_min             =  -1.8583437992206E-03
(PID.TID 0000.0001) %MON dynstat_vvel_mean            =  -6.7896446397535E-08
(PID.TID 0000.0001) %MON dynstat_vvel_sd              =   1.0814749060806E-04
(PID.TID 0000.0001) %MON dynstat_vvel_del2            =   3.1360042114160E-07
(PID.TID 0000.0001) %MON dynstat_wvel_max             =   1.3764616428498E-04
(PID.TID 0000.0001) %MON dynstat_wvel_min             =  -1.0666113016607E-04
(PID.TID 0000.0001) %MON dynstat_wvel_mean            =   1.6209164994160E-10
(PID.TID 0000.0001) %MON dynstat_wvel_sd              =   1.5825801835487E-05
(PID.TID 0000.0001) %MON dynstat_wvel_del2            =   7.4346527376463E-08
(PID.TID 0000.0001) %MON dynstat_theta_max            =   1.2000000000000E+00
(PID.TID 0000.0001) %MON dynstat_theta_min            =  -1.0000000000000E+00
(PID.TID 0000.0001) %MON dynstat_theta_mean           =   5.6542823590898E-01
(PID.TID 0000.0001) %MON dynstat_theta_sd             =   8.4905221869700E-01
(PID.TID 0000.0001) %MON dynstat_theta_del2           =   9.1837791808737E-07
(PID.TID 0000.0001) %MON dynstat_salt_max             =   3.4700000000000E+01
(PID.TID 0000.0001) %MON dynstat_salt_min             =   3.4000000000000E+01
(PID.TID 0000.0001) %MON dynstat_salt_mean            =   3.4498084769326E+01
(PID.TID 0000.0001) %MON dynstat_salt_sd              =   2.7015361203346E-01
(PID.TID 0000.0001) %MON dynstat_salt_del2            =   3.1286887124878E-07
(PID.TID 0000.0001) %MON advcfl_uvel_max              =   3.2505782618975E-04
(PID.TID 0000.0001) %MON advcfl_vvel_max              =   3.5981673267824E-04
(PID.TID 0000.0001) %MON advcfl_wvel_max              =   6.8823082142488E-04
(PID.TID 0000.0001) %MON advcfl_W_hf_max              =   6.8823082142488E-04
(PID.TID 0000.0001) %MON pe_b_mean                    =  -6.8281468069533E-01
(PID.TID 0000.0001) %MON ke_max                       =   4.9229277471389E-06
(PID.TID 0000.0001) %MON ke_mean                      =   1.3664860188459E-08
(PID.TID 0000.0001) %MON ke_vol                       =   4.6182893849320E+12
(PID.TID 0000.0001) // =======================================================
(PID.TID 0000.0001) // End MONITOR dynamic field statistics
(PID.TID 0000.0001) // =======================================================
(PID.TID 0000.0001) // =======================================================
(PID.TID 0000.0001) // Begin OBCS MONITOR field statistics
(PID.TID 0000.0001) // =======================================================
(PID.TID 0000.0001) %MON obc_N_vVel_max               =  -7.9613156098415E-08
(PID.TID 0000.0001) %MON obc_N_vVel_min               =  -7.9613156098417E-08
(PID.TID 0000.0001) %MON obc_N_vVel_mean              =  -7.9613156098415E-08
(PID.TID 0000.0001) %MON obc_N_vVel_sd                =   1.6922071640175E-14
(PID.TID 0000.0001) %MON obc_N_vVel_Int               =  -5.2544683024954E+00
(PID.TID 0000.0001) // =======================================================
(PID.TID 0000.0001) // End OBCS MONITOR field statistics
(PID.TID 0000.0001) // =======================================================
 cg2d: Sum(rhs),rhsMax =   3.01201853424935E+00  4.53051397441443E+02
(PID.TID 0000.0001)      cg2d_init_res =   1.63228477754633E-06
(PID.TID 0000.0001)      cg2d_iters(min,last) =      -1      67
(PID.TID 0000.0001)      cg2d_last_res =   9.26992060130955E-12
(PID.TID 0000.0001) // =======================================================
(PID.TID 0000.0001) // Begin MONITOR dynamic field statistics
(PID.TID 0000.0001) // =======================================================
(PID.TID 0000.0001) %MON time_tsnumber                =                   377
(PID.TID 0000.0001) %MON time_secondsf                =   3.7700000000000E+04
(PID.TID 0000.0001) %MON dynstat_eta_max              =   5.7965260005124E+00
(PID.TID 0000.0001) %MON dynstat_eta_min              =  -1.4176781334992E+01
(PID.TID 0000.0001) %MON dynstat_eta_mean             =  -2.5270355667800E+00
(PID.TID 0000.0001) %MON dynstat_eta_sd               =   4.9419644803896E+00
(PID.TID 0000.0001) %MON dynstat_eta_del2             =   1.9058067179500E-01
(PID.TID 0000.0001) %MON dynstat_uvel_max             =   1.7454336206395E-03
(PID.TID 0000.0001) %MON dynstat_uvel_min             =  -3.2635907765135E-03
(PID.TID 0000.0001) %MON dynstat_uvel_mean            =  -1.3102452144037E-09
(PID.TID 0000.0001) %MON dynstat_uvel_sd              =   1.2660516936634E-04
(PID.TID 0000.0001) %MON dynstat_uvel_del2            =   2.8521575708140E-07
(PID.TID 0000.0001) %MON dynstat_vvel_max             =   3.6105981895869E-03
(PID.TID 0000.0001) %MON dynstat_vvel_min             =  -1.8616804520963E-03
(PID.TID 0000.0001) %MON dynstat_vvel_mean            =  -6.4197079792101E-08
(PID.TID 0000.0001) %MON dynstat_vvel_sd              =   1.0820953360317E-04
(PID.TID 0000.0001) %MON dynstat_vvel_del2            =   3.1323314102000E-07
(PID.TID 0000.0001) %MON dynstat_wvel_max             =   1.3700095807605E-04
(PID.TID 0000.0001) %MON dynstat_wvel_min             =  -1.0721347660837E-04
(PID.TID 0000.0001) %MON dynstat_wvel_mean            =   1.6248674051530E-10
(PID.TID 0000.0001) %MON dynstat_wvel_sd              =   1.5793541841475E-05
(PID.TID 0000.0001) %MON dynstat_wvel_del2            =   7.4132308211833E-08
(PID.TID 0000.0001) %MON dynstat_theta_max            =   1.2000000000000E+00
(PID.TID 0000.0001) %MON dynstat_theta_min            =  -1.0000000000000E+00
(PID.TID 0000.0001) %MON dynstat_theta_mean           =   5.6542802081518E-01
(PID.TID 0000.0001) %MON dynstat_theta_sd             =   8.4905216939455E-01
(PID.TID 0000.0001) %MON dynstat_theta_del2           =   9.1701489943222E-07
(PID.TID 0000.0001) %MON dynstat_salt_max             =   3.4700000000000E+01
(PID.TID 0000.0001) %MON dynstat_salt_min             =   3.4000000000000E+01
(PID.TID 0000.0001) %MON dynstat_salt_mean            =   3.4498084684026E+01
(PID.TID 0000.0001) %MON dynstat_salt_sd              =   2.7015359723132E-01
(PID.TID 0000.0001) %MON dynstat_salt_del2            =   3.1262899159651E-07
(PID.TID 0000.0001) %MON advcfl_uvel_max              =   3.2635907765135E-04
(PID.TID 0000.0001) %MON advcfl_vvel_max              =   3.6105981895869E-04
(PID.TID 0000.0001) %MON advcfl_wvel_max              =   6.8500479038027E-04
(PID.TID 0000.0001) %MON advcfl_W_hf_max              =   6.8500479038027E-04
(PID.TID 0000.0001) %MON pe_b_mean                    =  -6.8281415427172E-01
(PID.TID 0000.0001) %MON ke_max                       =   4.9211644956098E-06
(PID.TID 0000.0001) %MON ke_mean                      =   1.3718240007393E-08
(PID.TID 0000.0001) %MON ke_vol                       =   4.6182893968384E+12
(PID.TID 0000.0001) // =======================================================
(PID.TID 0000.0001) // End MONITOR dynamic field statistics
(PID.TID 0000.0001) // =======================================================
(PID.TID 0000.0001) // =======================================================
(PID.TID 0000.0001) // Begin OBCS MONITOR field statistics
(PID.TID 0000.0001) // =======================================================
(PID.TID 0000.0001) %MON obc_N_vVel_max               =  -7.6240707405262E-08
(PID.TID 0000.0001) %MON obc_N_vVel_min               =  -7.6240707405264E-08
(PID.TID 0000.0001) %MON obc_N_vVel_mean              =  -7.6240707405262E-08
(PID.TID 0000.0001) %MON obc_N_vVel_sd                =   9.1873890120452E-15
(PID.TID 0000.0001) %MON obc_N_vVel_Int               =  -5.0318866887473E+00
(PID.TID 0000.0001) // =======================================================
(PID.TID 0000.0001) // End OBCS MONITOR field statistics
(PID.TID 0000.0001) // =======================================================
 cg2d: Sum(rhs),rhsMax =   3.01201621312438E+00  4.53051387898566E+02
(PID.TID 0000.0001)      cg2d_init_res =   1.62931054616099E-06
(PID.TID 0000.0001)      cg2d_iters(min,last) =      -1      67
(PID.TID 0000.0001)      cg2d_last_res =   9.28343432443058E-12
(PID.TID 0000.0001) // =======================================================
(PID.TID 0000.0001) // Begin MONITOR dynamic field statistics
(PID.TID 0000.0001) // =======================================================
(PID.TID 0000.0001) %MON time_tsnumber                =                   378
(PID.TID 0000.0001) %MON time_secondsf                =   3.7800000000000E+04
(PID.TID 0000.0001) %MON dynstat_eta_max              =   5.7965287447205E+00
(PID.TID 0000.0001) %MON dynstat_eta_min              =  -1.4176775839391E+01
(PID.TID 0000.0001) %MON dynstat_eta_mean             =  -2.5270335661648E+00
(PID.TID 0000.0001) %MON dynstat_eta_sd               =   4.9419638389498E+00
(PID.TID 0000.0001) %MON dynstat_eta_del2             =   1.9058067339935E-01
(PID.TID 0000.0001) %MON dynstat_uvel_max             =   1.7485033627800E-03
(PID.TID 0000.0001) %MON dynstat_uvel_min             =  -3.2766248407965E-03
(PID.TID 0000.0001) %MON dynstat_uvel_mean            =  -1.3138724680588E-09
(PID.TID 0000.0001) %MON dynstat_uvel_sd              =   1.2698145366593E-04
(PID.TID 0000.0001) %MON dynstat_uvel_del2            =   2.8508383664531E-07
(PID.TID 0000.0001) %MON dynstat_vvel_max             =   3.6230296196249E-03
(PID.TID 0000.0001) %MON dynstat_vvel_min             =  -1.8649814029050E-03
(PID.TID 0000.0001) %MON dynstat_vvel_mean            =  -6.0586574872058E-08
(PID.TID 0000.0001) %MON dynstat_vvel_sd              =   1.0827218002653E-04
(PID.TID 0000.0001) %MON dynstat_vvel_del2            =   3.1288834616860E-07
(PID.TID 0000.0001) %MON dynstat_wvel_max             =   1.3635562221342E-04
(PID.TID 0000.0001) %MON dynstat_wvel_min             =  -1.0776700003587E-04
(PID.TID 0000.0001) %MON dynstat_wvel_mean            =   1.6208095698983E-10
(PID.TID 0000.0001) %MON dynstat_wvel_sd              =   1.5763614445053E-05
(PID.TID 0000.0001) %MON dynstat_wvel_del2            =   7.3950438581876E-08
(PID.TID 0000.0001) %MON dynstat_theta_max            =   1.2000000000000E+00
(PID.TID 0000.0001) %MON dynstat_theta_min            =  -1.0000000000000E+00
(PID.TID 0000.0001) %MON dynstat_theta_mean           =   5.6542780548117E-01
(PID.TID 0000.0001) %MON dynstat_theta_sd             =   8.4905211998023E-01
(PID.TID 0000.0001) %MON dynstat_theta_del2           =   9.1565416407338E-07
(PID.TID 0000.0001) %MON dynstat_salt_max             =   3.4700000000000E+01
(PID.TID 0000.0001) %MON dynstat_salt_min             =   3.4000000000000E+01
(PID.TID 0000.0001) %MON dynstat_salt_mean            =   3.4498084598634E+01
(PID.TID 0000.0001) %MON dynstat_salt_sd              =   2.7015358238235E-01
(PID.TID 0000.0001) %MON dynstat_salt_del2            =   3.1239033973459E-07
(PID.TID 0000.0001) %MON advcfl_uvel_max              =   3.2766248407965E-04
(PID.TID 0000.0001) %MON advcfl_vvel_max              =   3.6230296196249E-04
(PID.TID 0000.0001) %MON advcfl_wvel_max              =   6.8177811106711E-04
(PID.TID 0000.0001) %MON advcfl_W_hf_max              =   6.8177811106711E-04
(PID.TID 0000.0001) %MON pe_b_mean                    =  -6.8281362802117E-01
(PID.TID 0000.0001) %MON ke_max                       =   4.9193313300515E-06
(PID.TID 0000.0001) %MON ke_mean                      =   1.3771833948541E-08
(PID.TID 0000.0001) %MON ke_vol                       =   4.6182894087333E+12
(PID.TID 0000.0001) // =======================================================
(PID.TID 0000.0001) // End MONITOR dynamic field statistics
(PID.TID 0000.0001) // =======================================================
(PID.TID 0000.0001) // =======================================================
(PID.TID 0000.0001) // Begin OBCS MONITOR field statistics
(PID.TID 0000.0001) // =======================================================
(PID.TID 0000.0001) %MON obc_N_vVel_max               =  -7.2879518214828E-08
(PID.TID 0000.0001) %MON obc_N_vVel_min               =  -7.2879518214830E-08
(PID.TID 0000.0001) %MON obc_N_vVel_mean              =  -7.2879518214828E-08
(PID.TID 0000.0001) %MON obc_N_vVel_sd                =   1.2992930143632E-14
(PID.TID 0000.0001) %MON obc_N_vVel_Int               =  -4.8100482021787E+00
(PID.TID 0000.0001) // =======================================================
(PID.TID 0000.0001) // End OBCS MONITOR field statistics
(PID.TID 0000.0001) // =======================================================
 cg2d: Sum(rhs),rhsMax =   3.01201389601424E+00  4.53051378066190E+02
(PID.TID 0000.0001)      cg2d_init_res =   1.62706056790473E-06
(PID.TID 0000.0001)      cg2d_iters(min,last) =      -1      67
(PID.TID 0000.0001)      cg2d_last_res =   9.29970636509517E-12
(PID.TID 0000.0001) // =======================================================
(PID.TID 0000.0001) // Begin MONITOR dynamic field statistics
(PID.TID 0000.0001) // =======================================================
(PID.TID 0000.0001) %MON time_tsnumber                =                   379
(PID.TID 0000.0001) %MON time_secondsf                =   3.7900000000000E+04
(PID.TID 0000.0001) %MON dynstat_eta_max              =   5.7965314843178E+00
(PID.TID 0000.0001) %MON dynstat_eta_min              =  -1.4176770346071E+01
(PID.TID 0000.0001) %MON dynstat_eta_mean             =  -2.5270315673033E+00
(PID.TID 0000.0001) %MON dynstat_eta_sd               =   4.9419631980324E+00
(PID.TID 0000.0001) %MON dynstat_eta_del2             =   1.9058067501935E-01
(PID.TID 0000.0001) %MON dynstat_uvel_max             =   1.7515670816124E-03
(PID.TID 0000.0001) %MON dynstat_uvel_min             =  -3.2896805951159E-03
(PID.TID 0000.0001) %MON dynstat_uvel_mean            =  -1.3120860647473E-09
(PID.TID 0000.0001) %MON dynstat_uvel_sd              =   1.2735777281700E-04
(PID.TID 0000.0001) %MON dynstat_uvel_del2            =   2.8495806199815E-07
(PID.TID 0000.0001) %MON dynstat_vvel_max             =   3.6354616926213E-03
(PID.TID 0000.0001) %MON dynstat_vvel_min             =  -1.8682465352082E-03
(PID.TID 0000.0001) %MON dynstat_vvel_mean            =  -5.7177367543589E-08
(PID.TID 0000.0001) %MON dynstat_vvel_sd              =   1.0833538806239E-04
(PID.TID 0000.0001) %MON dynstat_vvel_del2            =   3.1256497782341E-07
(PID.TID 0000.0001) %MON dynstat_wvel_max             =   1.3571018894718E-04
(PID.TID 0000.0001) %MON dynstat_wvel_min             =  -1.0832169947323E-04
(PID.TID 0000.0001) %MON dynstat_wvel_mean            =   1.6089934034269E-10
(PID.TID 0000.0001) %MON dynstat_wvel_sd              =   1.5735892584229E-05
(PID.TID 0000.0001) %MON dynstat_wvel_del2            =   7.3798380366476E-08
(PID.TID 0000.0001) %MON dynstat_theta_max            =   1.2000000000000E+00
(PID.TID 0000.0001) %MON dynstat_theta_min            =  -1.0000000000000E+00
(PID.TID 0000.0001) %MON dynstat_theta_mean           =   5.6542758990343E-01
(PID.TID 0000.0001) %MON dynstat_theta_sd             =   8.4905207043771E-01
(PID.TID 0000.0001) %MON dynstat_theta_del2           =   9.1429773281728E-07
(PID.TID 0000.0001) %MON dynstat_salt_max             =   3.4700000000000E+01
(PID.TID 0000.0001) %MON dynstat_salt_min             =   3.4000000000000E+01
(PID.TID 0000.0001) %MON dynstat_salt_mean            =   3.4498084513147E+01
(PID.TID 0000.0001) %MON dynstat_salt_sd              =   2.7015356748134E-01
(PID.TID 0000.0001) %MON dynstat_salt_del2            =   3.1215352807734E-07
(PID.TID 0000.0001) %MON advcfl_uvel_max              =   3.2896805951159E-04
(PID.TID 0000.0001) %MON advcfl_vvel_max              =   3.6354616926213E-04
(PID.TID 0000.0001) %MON advcfl_wvel_max              =   6.7855094473588E-04
(PID.TID 0000.0001) %MON advcfl_W_hf_max              =   6.7855094473588E-04
(PID.TID 0000.0001) %MON pe_b_mean                    =  -6.8281310188913E-01
(PID.TID 0000.0001) %MON ke_max                       =   4.9174285871797E-06
(PID.TID 0000.0001) %MON ke_mean                      =   1.3825635962445E-08
(PID.TID 0000.0001) %MON ke_vol                       =   4.6182894206170E+12
(PID.TID 0000.0001) // =======================================================
(PID.TID 0000.0001) // End MONITOR dynamic field statistics
(PID.TID 0000.0001) // =======================================================
(PID.TID 0000.0001) // =======================================================
(PID.TID 0000.0001) // Begin OBCS MONITOR field statistics
(PID.TID 0000.0001) // =======================================================
(PID.TID 0000.0001) %MON obc_N_vVel_max               =  -6.9635079743922E-08
(PID.TID 0000.0001) %MON obc_N_vVel_min               =  -6.9635079743922E-08
(PID.TID 0000.0001) %MON obc_N_vVel_mean              =  -6.9635079743922E-08
(PID.TID 0000.0001) %MON obc_N_vVel_sd                =   1.1128843700929E-14
(PID.TID 0000.0001) %MON obc_N_vVel_Int               =  -4.5959152630988E+00
(PID.TID 0000.0001) // =======================================================
(PID.TID 0000.0001) // End OBCS MONITOR field statistics
(PID.TID 0000.0001) // =======================================================
 cg2d: Sum(rhs),rhsMax =   3.01201158260641E+00  4.53051367944491E+02
(PID.TID 0000.0001)      cg2d_init_res =   1.62545873695754E-06
(PID.TID 0000.0001)      cg2d_iters(min,last) =      -1      67
(PID.TID 0000.0001)      cg2d_last_res =   9.32063943199158E-12
(PID.TID 0000.0001) // =======================================================
(PID.TID 0000.0001) // Begin MONITOR dynamic field statistics
(PID.TID 0000.0001) // =======================================================
(PID.TID 0000.0001) %MON time_tsnumber                =                   380
(PID.TID 0000.0001) %MON time_secondsf                =   3.8000000000000E+04
(PID.TID 0000.0001) %MON dynstat_eta_max              =   5.7965342197943E+00
(PID.TID 0000.0001) %MON dynstat_eta_min              =  -1.4176764854249E+01
(PID.TID 0000.0001) %MON dynstat_eta_mean             =  -2.5270295699342E+00
(PID.TID 0000.0001) %MON dynstat_eta_sd               =   4.9419625574691E+00
(PID.TID 0000.0001) %MON dynstat_eta_del2             =   1.9058067665445E-01
(PID.TID 0000.0001) %MON dynstat_uvel_max             =   1.7546249576803E-03
(PID.TID 0000.0001) %MON dynstat_uvel_min             =  -3.3027581803884E-03
(PID.TID 0000.0001) %MON dynstat_uvel_mean            =  -1.3051637040029E-09
(PID.TID 0000.0001) %MON dynstat_uvel_sd              =   1.2773411347902E-04
(PID.TID 0000.0001) %MON dynstat_uvel_del2            =   2.8483841576739E-07
(PID.TID 0000.0001) %MON dynstat_vvel_max             =   3.6478944858696E-03
(PID.TID 0000.0001) %MON dynstat_vvel_min             =  -1.8714757299074E-03
(PID.TID 0000.0001) %MON dynstat_vvel_mean            =  -5.4073820771047E-08
(PID.TID 0000.0001) %MON dynstat_vvel_sd              =   1.0839903170929E-04
(PID.TID 0000.0001) %MON dynstat_vvel_del2            =   3.1226008361127E-07
(PID.TID 0000.0001) %MON dynstat_wvel_max             =   1.3506469015649E-04
(PID.TID 0000.0001) %MON dynstat_wvel_min             =  -1.0887757390911E-04
(PID.TID 0000.0001) %MON dynstat_wvel_mean            =   1.5899031031515E-10
(PID.TID 0000.0001) %MON dynstat_wvel_sd              =   1.5709995597723E-05
(PID.TID 0000.0001) %MON dynstat_wvel_del2            =   7.3669955145364E-08
(PID.TID 0000.0001) %MON dynstat_theta_max            =   1.2000000000000E+00
(PID.TID 0000.0001) %MON dynstat_theta_min            =  -1.0000000000000E+00
(PID.TID 0000.0001) %MON dynstat_theta_mean           =   5.6542737407795E-01
(PID.TID 0000.0001) %MON dynstat_theta_sd             =   8.4905202075117E-01
(PID.TID 0000.0001) %MON dynstat_theta_del2           =   9.1294909206888E-07
(PID.TID 0000.0001) %MON dynstat_salt_max             =   3.4700000000000E+01
(PID.TID 0000.0001) %MON dynstat_salt_min             =   3.4000000000000E+01
(PID.TID 0000.0001) %MON dynstat_salt_mean            =   3.4498084427565E+01
(PID.TID 0000.0001) %MON dynstat_salt_sd              =   2.7015355252314E-01
(PID.TID 0000.0001) %MON dynstat_salt_del2            =   3.1191962066212E-07
(PID.TID 0000.0001) %MON advcfl_uvel_max              =   3.3027581803884E-04
(PID.TID 0000.0001) %MON advcfl_vvel_max              =   3.6478944858696E-04
(PID.TID 0000.0001) %MON advcfl_wvel_max              =   6.7532345078245E-04
(PID.TID 0000.0001) %MON advcfl_W_hf_max              =   6.7532345078245E-04
(PID.TID 0000.0001) %MON pe_b_mean                    =  -6.8281257579791E-01
(PID.TID 0000.0001) %MON ke_max                       =   4.9154566119121E-06
(PID.TID 0000.0001) %MON ke_mean                      =   1.3879630867699E-08
(PID.TID 0000.0001) %MON ke_vol                       =   4.6182894324902E+12
(PID.TID 0000.0001) // =======================================================
(PID.TID 0000.0001) // End MONITOR dynamic field statistics
(PID.TID 0000.0001) // =======================================================
(PID.TID 0000.0001) // =======================================================
(PID.TID 0000.0001) // Begin OBCS MONITOR field statistics
(PID.TID 0000.0001) // =======================================================
(PID.TID 0000.0001) %MON obc_N_vVel_max               =  -6.6607568001254E-08
(PID.TID 0000.0001) %MON obc_N_vVel_min               =  -6.6607568001255E-08
(PID.TID 0000.0001) %MON obc_N_vVel_mean              =  -6.6607568001254E-08
(PID.TID 0000.0001) %MON obc_N_vVel_sd                =   1.4266257867676E-14
(PID.TID 0000.0001) %MON obc_N_vVel_Int               =  -4.3960994880827E+00
(PID.TID 0000.0001) // =======================================================
(PID.TID 0000.0001) // End OBCS MONITOR field statistics
(PID.TID 0000.0001) // =======================================================
 cg2d: Sum(rhs),rhsMax =   3.01200927244411E+00  4.53051357538476E+02
(PID.TID 0000.0001)      cg2d_init_res =   1.62435289369634E-06
(PID.TID 0000.0001)      cg2d_iters(min,last) =      -1      67
(PID.TID 0000.0001)      cg2d_last_res =   9.34748345291099E-12
(PID.TID 0000.0001) // =======================================================
(PID.TID 0000.0001) // Begin MONITOR dynamic field statistics
(PID.TID 0000.0001) // =======================================================
(PID.TID 0000.0001) %MON time_tsnumber                =                   381
(PID.TID 0000.0001) %MON time_secondsf                =   3.8100000000000E+04
(PID.TID 0000.0001) %MON dynstat_eta_max              =   5.7965369517659E+00
(PID.TID 0000.0001) %MON dynstat_eta_min              =  -1.4176759362986E+01
(PID.TID 0000.0001) %MON dynstat_eta_mean             =  -2.5270275737024E+00
(PID.TID 0000.0001) %MON dynstat_eta_sd               =   4.9419619170598E+00
(PID.TID 0000.0001) %MON dynstat_eta_del2             =   1.9058067830379E-01
(PID.TID 0000.0001) %MON dynstat_uvel_max             =   1.7576771707404E-03
(PID.TID 0000.0001) %MON dynstat_uvel_min             =  -3.3158577381460E-03
(PID.TID 0000.0001) %MON dynstat_uvel_mean            =  -1.2935490006109E-09
(PID.TID 0000.0001) %MON dynstat_uvel_sd              =   1.2811046248936E-04
(PID.TID 0000.0001) %MON dynstat_uvel_del2            =   2.8472487871541E-07
(PID.TID 0000.0001) %MON dynstat_vvel_max             =   3.6603280792169E-03
(PID.TID 0000.0001) %MON dynstat_vvel_min             =  -1.8746688634161E-03
(PID.TID 0000.0001) %MON dynstat_vvel_mean            =  -5.1368948970525E-08
(PID.TID 0000.0001) %MON dynstat_vvel_sd              =   1.0846291870764E-04
(PID.TID 0000.0001) %MON dynstat_vvel_del2            =   3.1196928022322E-07
(PID.TID 0000.0001) %MON dynstat_wvel_max             =   1.3441915707062E-04
(PID.TID 0000.0001) %MON dynstat_wvel_min             =  -1.0943462239868E-04
(PID.TID 0000.0001) %MON dynstat_wvel_mean            =   1.5642583300780E-10
(PID.TID 0000.0001) %MON dynstat_wvel_sd              =   1.5685347462358E-05
(PID.TID 0000.0001) %MON dynstat_wvel_del2            =   7.3556263848538E-08
(PID.TID 0000.0001) %MON dynstat_theta_max            =   1.2000000000000E+00
(PID.TID 0000.0001) %MON dynstat_theta_min            =  -1.0000000000000E+00
(PID.TID 0000.0001) %MON dynstat_theta_mean           =   5.6542715800161E-01
(PID.TID 0000.0001) %MON dynstat_theta_sd             =   8.4905197091384E-01
(PID.TID 0000.0001) %MON dynstat_theta_del2           =   9.1161285431489E-07
(PID.TID 0000.0001) %MON dynstat_salt_max             =   3.4700000000000E+01
(PID.TID 0000.0001) %MON dynstat_salt_min             =   3.4000000000000E+01
(PID.TID 0000.0001) %MON dynstat_salt_mean            =   3.4498084341885E+01
(PID.TID 0000.0001) %MON dynstat_salt_sd              =   2.7015353750564E-01
(PID.TID 0000.0001) %MON dynstat_salt_del2            =   3.1169000231739E-07
(PID.TID 0000.0001) %MON advcfl_uvel_max              =   3.3158577381460E-04
(PID.TID 0000.0001) %MON advcfl_vvel_max              =   3.6603280792169E-04
(PID.TID 0000.0001) %MON advcfl_wvel_max              =   6.7209578535312E-04
(PID.TID 0000.0001) %MON advcfl_W_hf_max              =   6.7209578535312E-04
(PID.TID 0000.0001) %MON pe_b_mean                    =  -6.8281204965290E-01
(PID.TID 0000.0001) %MON ke_max                       =   4.9134157603715E-06
(PID.TID 0000.0001) %MON ke_mean                      =   1.3933796266284E-08
(PID.TID 0000.0001) %MON ke_vol                       =   4.6182894443546E+12
(PID.TID 0000.0001) // =======================================================
(PID.TID 0000.0001) // End MONITOR dynamic field statistics
(PID.TID 0000.0001) // =======================================================
(PID.TID 0000.0001) // =======================================================
(PID.TID 0000.0001) // Begin OBCS MONITOR field statistics
(PID.TID 0000.0001) // =======================================================
(PID.TID 0000.0001) %MON obc_N_vVel_max               =  -6.3888895880820E-08
(PID.TID 0000.0001) %MON obc_N_vVel_min               =  -6.3888895880823E-08
(PID.TID 0000.0001) %MON obc_N_vVel_mean              =  -6.3888895880823E-08
(PID.TID 0000.0001) %MON obc_N_vVel_sd                =  -4.1967400157758E-28
(PID.TID 0000.0001) %MON obc_N_vVel_Int               =  -4.2166671281343E+00
(PID.TID 0000.0001) // =======================================================
(PID.TID 0000.0001) // End OBCS MONITOR field statistics
(PID.TID 0000.0001) // =======================================================
 cg2d: Sum(rhs),rhsMax =   3.01200696493634E+00  4.53051346858121E+02
(PID.TID 0000.0001)      cg2d_init_res =   1.62354863858440E-06
(PID.TID 0000.0001)      cg2d_iters(min,last) =      -1      67
(PID.TID 0000.0001)      cg2d_last_res =   9.39497767094116E-12
(PID.TID 0000.0001) // =======================================================
(PID.TID 0000.0001) // Begin MONITOR dynamic field statistics
(PID.TID 0000.0001) // =======================================================
(PID.TID 0000.0001) %MON time_tsnumber                =                   382
(PID.TID 0000.0001) %MON time_secondsf                =   3.8200000000000E+04
(PID.TID 0000.0001) %MON dynstat_eta_max              =   5.7965396809867E+00
(PID.TID 0000.0001) %MON dynstat_eta_min              =  -1.4176753871180E+01
(PID.TID 0000.0001) %MON dynstat_eta_mean             =  -2.5270255781675E+00
(PID.TID 0000.0001) %MON dynstat_eta_sd               =   4.9419612765992E+00
(PID.TID 0000.0001) %MON dynstat_eta_del2             =   1.9058067996695E-01
(PID.TID 0000.0001) %MON dynstat_uvel_max             =   1.7607238989523E-03
(PID.TID 0000.0001) %MON dynstat_uvel_min             =  -3.3289794106279E-03
(PID.TID 0000.0001) %MON dynstat_uvel_mean            =  -1.2778553242578E-09
(PID.TID 0000.0001) %MON dynstat_uvel_sd              =   1.2848680683529E-04
(PID.TID 0000.0001) %MON dynstat_uvel_del2            =   2.8461742947754E-07
(PID.TID 0000.0001) %MON dynstat_vvel_max             =   3.6727625553592E-03
(PID.TID 0000.0001) %MON dynstat_vvel_min             =  -1.8778258055923E-03
(PID.TID 0000.0001) %MON dynstat_vvel_mean            =  -4.9141543310440E-08
(PID.TID 0000.0001) %MON dynstat_vvel_sd              =   1.0852681574266E-04
(PID.TID 0000.0001) %MON dynstat_vvel_del2            =   3.1168738413981E-07
(PID.TID 0000.0001) %MON dynstat_wvel_max             =   1.3377362059954E-04
(PID.TID 0000.0001) %MON dynstat_wvel_min             =  -1.0999284393357E-04
(PID.TID 0000.0001) %MON dynstat_wvel_mean            =   1.5329941506515E-10
(PID.TID 0000.0001) %MON dynstat_wvel_sd              =   1.5661258870018E-05
(PID.TID 0000.0001) %MON dynstat_wvel_del2            =   7.3446938055947E-08
(PID.TID 0000.0001) %MON dynstat_theta_max            =   1.2000000000000E+00
(PID.TID 0000.0001) %MON dynstat_theta_min            =  -1.0000000000000E+00
(PID.TID 0000.0001) %MON dynstat_theta_mean           =   5.6542694167178E-01
(PID.TID 0000.0001) %MON dynstat_theta_sd             =   8.4905192091793E-01
(PID.TID 0000.0001) %MON dynstat_theta_del2           =   9.1029391715124E-07
(PID.TID 0000.0001) %MON dynstat_salt_max             =   3.4700000000000E+01
(PID.TID 0000.0001) %MON dynstat_salt_min             =   3.4000000000000E+01
(PID.TID 0000.0001) %MON dynstat_salt_mean            =   3.4498084256107E+01
(PID.TID 0000.0001) %MON dynstat_salt_sd              =   2.7015352242612E-01
(PID.TID 0000.0001) %MON dynstat_salt_del2            =   3.1146612159505E-07
(PID.TID 0000.0001) %MON advcfl_uvel_max              =   3.3289794106279E-04
(PID.TID 0000.0001) %MON advcfl_vvel_max              =   3.6727625553592E-04
(PID.TID 0000.0001) %MON advcfl_wvel_max              =   6.6886810299769E-04
(PID.TID 0000.0001) %MON advcfl_W_hf_max              =   6.6886810299769E-04
(PID.TID 0000.0001) %MON pe_b_mean                    =  -6.8281152334575E-01
(PID.TID 0000.0001) %MON ke_max                       =   4.9113064015798E-06
(PID.TID 0000.0001) %MON ke_mean                      =   1.3988105253949E-08
(PID.TID 0000.0001) %MON ke_vol                       =   4.6182894562122E+12
(PID.TID 0000.0001) // =======================================================
(PID.TID 0000.0001) // End MONITOR dynamic field statistics
(PID.TID 0000.0001) // =======================================================
(PID.TID 0000.0001) // =======================================================
(PID.TID 0000.0001) // Begin OBCS MONITOR field statistics
(PID.TID 0000.0001) // =======================================================
(PID.TID 0000.0001) %MON obc_N_vVel_max               =  -6.1559831587401E-08
(PID.TID 0000.0001) %MON obc_N_vVel_min               =  -6.1559831587402E-08
(PID.TID 0000.0001) %MON obc_N_vVel_mean              =  -6.1559831587401E-08
(PID.TID 0000.0001) %MON obc_N_vVel_sd                =   1.6568753574633E-14
(PID.TID 0000.0001) %MON obc_N_vVel_Int               =  -4.0629488847685E+00
(PID.TID 0000.0001) // =======================================================
(PID.TID 0000.0001) // End OBCS MONITOR field statistics
(PID.TID 0000.0001) // =======================================================
 cg2d: Sum(rhs),rhsMax =   3.01200465937746E+00  4.53051335917957E+02
(PID.TID 0000.0001)      cg2d_init_res =   1.62282605114856E-06
(PID.TID 0000.0001)      cg2d_iters(min,last) =      -1      67
(PID.TID 0000.0001)      cg2d_last_res =   9.46296974388165E-12
(PID.TID 0000.0001) // =======================================================
(PID.TID 0000.0001) // Begin MONITOR dynamic field statistics
(PID.TID 0000.0001) // =======================================================
(PID.TID 0000.0001) %MON time_tsnumber                =                   383
(PID.TID 0000.0001) %MON time_secondsf                =   3.8300000000000E+04
(PID.TID 0000.0001) %MON dynstat_eta_max              =   5.7965424083316E+00
(PID.TID 0000.0001) %MON dynstat_eta_min              =  -1.4176748377561E+01
(PID.TID 0000.0001) %MON dynstat_eta_mean             =  -2.5270235828186E+00
(PID.TID 0000.0001) %MON dynstat_eta_sd               =   4.9419606358725E+00
(PID.TID 0000.0001) %MON dynstat_eta_del2             =   1.9058068164371E-01
(PID.TID 0000.0001) %MON dynstat_uvel_max             =   1.7637653190228E-03
(PID.TID 0000.0001) %MON dynstat_uvel_min             =  -3.3421233411941E-03
(PID.TID 0000.0001) %MON dynstat_uvel_mean            =  -1.2588172836624E-09
(PID.TID 0000.0001) %MON dynstat_uvel_sd              =   1.2886313363362E-04
(PID.TID 0000.0001) %MON dynstat_uvel_del2            =   2.8451604444182E-07
(PID.TID 0000.0001) %MON dynstat_vvel_max             =   3.6851979998755E-03
(PID.TID 0000.0001) %MON dynstat_vvel_min             =  -1.8809464182583E-03
(PID.TID 0000.0001) %MON dynstat_vvel_mean            =  -4.7453809884119E-08
(PID.TID 0000.0001) %MON dynstat_vvel_sd              =   1.0859047735684E-04
(PID.TID 0000.0001) %MON dynstat_vvel_del2            =   3.1140912282794E-07
(PID.TID 0000.0001) %MON dynstat_wvel_max             =   1.3312811155576E-04
(PID.TID 0000.0001) %MON dynstat_wvel_min             =  -1.1055223734592E-04
(PID.TID 0000.0001) %MON dynstat_wvel_mean            =   1.4972202933031E-10
(PID.TID 0000.0001) %MON dynstat_wvel_sd              =   1.5637021520111E-05
(PID.TID 0000.0001) %MON dynstat_wvel_del2            =   7.3331541764233E-08
(PID.TID 0000.0001) %MON dynstat_theta_max            =   1.2000000000000E+00
(PID.TID 0000.0001) %MON dynstat_theta_min            =  -1.0000000000000E+00
(PID.TID 0000.0001) %MON dynstat_theta_mean           =   5.6542672508622E-01
(PID.TID 0000.0001) %MON dynstat_theta_sd             =   8.4905187079369E-01
(PID.TID 0000.0001) %MON dynstat_theta_del2           =   9.0899742543805E-07
(PID.TID 0000.0001) %MON dynstat_salt_max             =   3.4700000000000E+01
(PID.TID 0000.0001) %MON dynstat_salt_min             =   3.4000000000000E+01
(PID.TID 0000.0001) %MON dynstat_salt_mean            =   3.4498084170231E+01
(PID.TID 0000.0001) %MON dynstat_salt_sd              =   2.7015350729450E-01
(PID.TID 0000.0001) %MON dynstat_salt_del2            =   3.1124949256887E-07
(PID.TID 0000.0001) %MON advcfl_uvel_max              =   3.3421233411941E-04
(PID.TID 0000.0001) %MON advcfl_vvel_max              =   3.6851979998755E-04
(PID.TID 0000.0001) %MON advcfl_wvel_max              =   6.6564055777878E-04
(PID.TID 0000.0001) %MON advcfl_W_hf_max              =   6.6564055777878E-04
(PID.TID 0000.0001) %MON pe_b_mean                    =  -6.8281099675739E-01
(PID.TID 0000.0001) %MON ke_max                       =   4.9091289180081E-06
(PID.TID 0000.0001) %MON ke_mean                      =   1.4042529544774E-08
(PID.TID 0000.0001) %MON ke_vol                       =   4.6182894680657E+12
(PID.TID 0000.0001) // =======================================================
(PID.TID 0000.0001) // End MONITOR dynamic field statistics
(PID.TID 0000.0001) // =======================================================
(PID.TID 0000.0001) // =======================================================
(PID.TID 0000.0001) // Begin OBCS MONITOR field statistics
(PID.TID 0000.0001) // =======================================================
(PID.TID 0000.0001) %MON obc_N_vVel_max               =  -5.9687343137359E-08
(PID.TID 0000.0001) %MON obc_N_vVel_min               =  -5.9687343137360E-08
(PID.TID 0000.0001) %MON obc_N_vVel_mean              =  -5.9687343137360E-08
(PID.TID 0000.0001) %MON obc_N_vVel_sd                =  -1.3568407569801E-28
(PID.TID 0000.0001) %MON obc_N_vVel_Int               =  -3.9393646470658E+00
(PID.TID 0000.0001) // =======================================================
(PID.TID 0000.0001) // End OBCS MONITOR field statistics
(PID.TID 0000.0001) // =======================================================
 cg2d: Sum(rhs),rhsMax =   3.01200235496050E+00  4.53051324737175E+02
(PID.TID 0000.0001)      cg2d_init_res =   1.62196253606638E-06
(PID.TID 0000.0001)      cg2d_iters(min,last) =      -1      67
(PID.TID 0000.0001)      cg2d_last_res =   9.54027050598344E-12
(PID.TID 0000.0001) // =======================================================
(PID.TID 0000.0001) // Begin MONITOR dynamic field statistics
(PID.TID 0000.0001) // =======================================================
(PID.TID 0000.0001) %MON time_tsnumber                =                   384
(PID.TID 0000.0001) %MON time_secondsf                =   3.8400000000000E+04
(PID.TID 0000.0001) %MON dynstat_eta_max              =   5.7965451347286E+00
(PID.TID 0000.0001) %MON dynstat_eta_min              =  -1.4176742880721E+01
(PID.TID 0000.0001) %MON dynstat_eta_mean             =  -2.5270215870858E+00
(PID.TID 0000.0001) %MON dynstat_eta_sd               =   4.9419599946688E+00
(PID.TID 0000.0001) %MON dynstat_eta_del2             =   1.9058068333402E-01
(PID.TID 0000.0001) %MON dynstat_uvel_max             =   1.7668016063475E-03
(PID.TID 0000.0001) %MON dynstat_uvel_min             =  -3.3552896738822E-03
(PID.TID 0000.0001) %MON dynstat_uvel_mean            =  -1.2372653078772E-09
(PID.TID 0000.0001) %MON dynstat_uvel_sd              =   1.2923943010158E-04
(PID.TID 0000.0001) %MON dynstat_uvel_del2            =   2.8442069774721E-07
(PID.TID 0000.0001) %MON dynstat_vvel_max             =   3.6976345019972E-03
(PID.TID 0000.0001) %MON dynstat_vvel_min             =  -1.8840305554670E-03
(PID.TID 0000.0001) %MON dynstat_vvel_mean            =  -4.6349562714849E-08
(PID.TID 0000.0001) %MON dynstat_vvel_sd              =   1.0865367480843E-04
(PID.TID 0000.0001) %MON dynstat_vvel_del2            =   3.1112983322610E-07
(PID.TID 0000.0001) %MON dynstat_wvel_max             =   1.3248266014383E-04
(PID.TID 0000.0001) %MON dynstat_wvel_min             =  -1.1111280173738E-04
(PID.TID 0000.0001) %MON dynstat_wvel_mean            =   1.4581634394855E-10
(PID.TID 0000.0001) %MON dynstat_wvel_sd              =   1.5612002081045E-05
(PID.TID 0000.0001) %MON dynstat_wvel_del2            =   7.3200933309253E-08
(PID.TID 0000.0001) %MON dynstat_theta_max            =   1.2000000000000E+00
(PID.TID 0000.0001) %MON dynstat_theta_min            =  -1.0000000000000E+00
(PID.TID 0000.0001) %MON dynstat_theta_mean           =   5.6542650824241E-01
(PID.TID 0000.0001) %MON dynstat_theta_sd             =   8.4905182057002E-01
(PID.TID 0000.0001) %MON dynstat_theta_del2           =   9.0772801506362E-07
(PID.TID 0000.0001) %MON dynstat_salt_max             =   3.4700000000000E+01
(PID.TID 0000.0001) %MON dynstat_salt_min             =   3.4000000000000E+01
(PID.TID 0000.0001) %MON dynstat_salt_mean            =   3.4498084084255E+01
(PID.TID 0000.0001) %MON dynstat_salt_sd              =   2.7015349211972E-01
(PID.TID 0000.0001) %MON dynstat_salt_del2            =   3.1104148308649E-07
(PID.TID 0000.0001) %MON advcfl_uvel_max              =   3.3552896738822E-04
(PID.TID 0000.0001) %MON advcfl_vvel_max              =   3.6976345019972E-04
(PID.TID 0000.0001) %MON advcfl_wvel_max              =   6.6241330071914E-04
(PID.TID 0000.0001) %MON advcfl_W_hf_max              =   6.6241330071914E-04
(PID.TID 0000.0001) %MON pe_b_mean                    =  -6.8281046976010E-01
(PID.TID 0000.0001) %MON ke_max                       =   4.9068837078583E-06
(PID.TID 0000.0001) %MON ke_mean                      =   1.4097042599805E-08
(PID.TID 0000.0001) %MON ke_vol                       =   4.6182894799181E+12
(PID.TID 0000.0001) // =======================================================
(PID.TID 0000.0001) // End MONITOR dynamic field statistics
(PID.TID 0000.0001) // =======================================================
(PID.TID 0000.0001) // =======================================================
(PID.TID 0000.0001) // Begin OBCS MONITOR field statistics
(PID.TID 0000.0001) // =======================================================
(PID.TID 0000.0001) %MON obc_N_vVel_max               =  -5.8322462717455E-08
(PID.TID 0000.0001) %MON obc_N_vVel_min               =  -5.8322462717457E-08
(PID.TID 0000.0001) %MON obc_N_vVel_mean              =  -5.8322462717455E-08
(PID.TID 0000.0001) %MON obc_N_vVel_sd                =   8.7249686162087E-15
(PID.TID 0000.0001) %MON obc_N_vVel_Int               =  -3.8492825393520E+00
(PID.TID 0000.0001) // =======================================================
(PID.TID 0000.0001) // End OBCS MONITOR field statistics
(PID.TID 0000.0001) // =======================================================
 cg2d: Sum(rhs),rhsMax =   3.01200005080013E+00  4.53051313339125E+02
(PID.TID 0000.0001)      cg2d_init_res =   1.62076602687000E-06
(PID.TID 0000.0001)      cg2d_iters(min,last) =      -1      67
(PID.TID 0000.0001)      cg2d_last_res =   9.62226624810951E-12
(PID.TID 0000.0001) // =======================================================
(PID.TID 0000.0001) // Begin MONITOR dynamic field statistics
(PID.TID 0000.0001) // =======================================================
(PID.TID 0000.0001) %MON time_tsnumber                =                   385
(PID.TID 0000.0001) %MON time_secondsf                =   3.8500000000000E+04
(PID.TID 0000.0001) %MON dynstat_eta_max              =   5.7965478611402E+00
(PID.TID 0000.0001) %MON dynstat_eta_min              =  -1.4176737379250E+01
(PID.TID 0000.0001) %MON dynstat_eta_mean             =  -2.5270195903565E+00
(PID.TID 0000.0001) %MON dynstat_eta_sd               =   4.9419593527796E+00
(PID.TID 0000.0001) %MON dynstat_eta_del2             =   1.9058068503863E-01
(PID.TID 0000.0001) %MON dynstat_uvel_max             =   1.7698329357678E-03
(PID.TID 0000.0001) %MON dynstat_uvel_min             =  -3.3684785534840E-03
(PID.TID 0000.0001) %MON dynstat_uvel_mean            =  -1.2141124955314E-09
(PID.TID 0000.0001) %MON dynstat_uvel_sd              =   1.2961568351366E-04
(PID.TID 0000.0001) %MON dynstat_uvel_del2            =   2.8433136100062E-07
(PID.TID 0000.0001) %MON dynstat_vvel_max             =   3.7100721552357E-03
(PID.TID 0000.0001) %MON dynstat_vvel_min             =  -1.8870780634028E-03
(PID.TID 0000.0001) %MON dynstat_vvel_mean            =  -4.5853036839165E-08
(PID.TID 0000.0001) %MON dynstat_vvel_sd              =   1.0871622128934E-04
(PID.TID 0000.0001) %MON dynstat_vvel_del2            =   3.1084605830049E-07
(PID.TID 0000.0001) %MON dynstat_wvel_max             =   1.3183729579488E-04
(PID.TID 0000.0001) %MON dynstat_wvel_min             =  -1.1167453622530E-04
(PID.TID 0000.0001) %MON dynstat_wvel_mean            =   1.4171297768681E-10
(PID.TID 0000.0001) %MON dynstat_wvel_sd              =   1.5585723927701E-05
(PID.TID 0000.0001) %MON dynstat_wvel_del2            =   7.3048415720450E-08
(PID.TID 0000.0001) %MON dynstat_theta_max            =   1.2000000000000E+00
(PID.TID 0000.0001) %MON dynstat_theta_min            =  -1.0000000000000E+00
(PID.TID 0000.0001) %MON dynstat_theta_mean           =   5.6542629113732E-01
(PID.TID 0000.0001) %MON dynstat_theta_sd             =   8.4905177027642E-01
(PID.TID 0000.0001) %MON dynstat_theta_del2           =   9.0648894044560E-07
(PID.TID 0000.0001) %MON dynstat_salt_max             =   3.4700000000000E+01
(PID.TID 0000.0001) %MON dynstat_salt_min             =   3.4000000000000E+01
(PID.TID 0000.0001) %MON dynstat_salt_mean            =   3.4498083998179E+01
(PID.TID 0000.0001) %MON dynstat_salt_sd              =   2.7015347691125E-01
(PID.TID 0000.0001) %MON dynstat_salt_del2            =   3.1084306101838E-07
(PID.TID 0000.0001) %MON advcfl_uvel_max              =   3.3684785534840E-04
(PID.TID 0000.0001) %MON advcfl_vvel_max              =   3.7100721552357E-04
(PID.TID 0000.0001) %MON advcfl_wvel_max              =   6.5918647897441E-04
(PID.TID 0000.0001) %MON advcfl_W_hf_max              =   6.5918647897441E-04
(PID.TID 0000.0001) %MON pe_b_mean                    =  -6.8280994222059E-01
(PID.TID 0000.0001) %MON ke_max                       =   4.9045711863824E-06
(PID.TID 0000.0001) %MON ke_mean                      =   1.4151622369820E-08
(PID.TID 0000.0001) %MON ke_vol                       =   4.6182894917727E+12
(PID.TID 0000.0001) // =======================================================
(PID.TID 0000.0001) // End MONITOR dynamic field statistics
(PID.TID 0000.0001) // =======================================================
(PID.TID 0000.0001) // =======================================================
(PID.TID 0000.0001) // Begin OBCS MONITOR field statistics
(PID.TID 0000.0001) // =======================================================
(PID.TID 0000.0001) %MON obc_N_vVel_max               =  -5.7498986808959E-08
(PID.TID 0000.0001) %MON obc_N_vVel_min               =  -5.7498986808961E-08
(PID.TID 0000.0001) %MON obc_N_vVel_mean              =  -5.7498986808959E-08
(PID.TID 0000.0001) %MON obc_N_vVel_sd                =   3.6620534388178E-15
(PID.TID 0000.0001) %MON obc_N_vVel_Int               =  -3.7949331293913E+00
(PID.TID 0000.0001) // =======================================================
(PID.TID 0000.0001) // End OBCS MONITOR field statistics
(PID.TID 0000.0001) // =======================================================
 cg2d: Sum(rhs),rhsMax =   3.01199774597002E+00  4.53051301750931E+02
(PID.TID 0000.0001)      cg2d_init_res =   1.61908929351377E-06
(PID.TID 0000.0001)      cg2d_iters(min,last) =      -1      67
(PID.TID 0000.0001)      cg2d_last_res =   9.70483321877237E-12
(PID.TID 0000.0001) // =======================================================
(PID.TID 0000.0001) // Begin MONITOR dynamic field statistics
(PID.TID 0000.0001) // =======================================================
(PID.TID 0000.0001) %MON time_tsnumber                =                   386
(PID.TID 0000.0001) %MON time_secondsf                =   3.8600000000000E+04
(PID.TID 0000.0001) %MON dynstat_eta_max              =   5.7965505885224E+00
(PID.TID 0000.0001) %MON dynstat_eta_min              =  -1.4176731871787E+01
(PID.TID 0000.0001) %MON dynstat_eta_mean             =  -2.5270175920048E+00
(PID.TID 0000.0001) %MON dynstat_eta_sd               =   4.9419587100079E+00
(PID.TID 0000.0001) %MON dynstat_eta_del2             =   1.9058068675789E-01
(PID.TID 0000.0001) %MON dynstat_uvel_max             =   1.7728594811928E-03
(PID.TID 0000.0001) %MON dynstat_uvel_min             =  -3.3816901256696E-03
(PID.TID 0000.0001) %MON dynstat_uvel_mean            =  -1.1903153586605E-09
(PID.TID 0000.0001) %MON dynstat_uvel_sd              =   1.2999188118501E-04
(PID.TID 0000.0001) %MON dynstat_uvel_del2            =   2.8424800336874E-07
(PID.TID 0000.0001) %MON dynstat_vvel_max             =   3.7225110571568E-03
(PID.TID 0000.0001) %MON dynstat_vvel_min             =  -1.8900887786089E-03
(PID.TID 0000.0001) %MON dynstat_vvel_mean            =  -4.5968394899627E-08
(PID.TID 0000.0001) %MON dynstat_vvel_sd              =   1.0877799003095E-04
(PID.TID 0000.0001) %MON dynstat_vvel_del2            =   3.1055596082253E-07
(PID.TID 0000.0001) %MON dynstat_wvel_max             =   1.3119204759942E-04
(PID.TID 0000.0001) %MON dynstat_wvel_min             =  -1.1223743984986E-04
(PID.TID 0000.0001) %MON dynstat_wvel_mean            =   1.3754794322741E-10
(PID.TID 0000.0001) %MON dynstat_wvel_sd              =   1.5557925586300E-05
(PID.TID 0000.0001) %MON dynstat_wvel_del2            =   7.2870530119023E-08
(PID.TID 0000.0001) %MON dynstat_theta_max            =   1.2000000000000E+00
(PID.TID 0000.0001) %MON dynstat_theta_min            =  -1.0000000000000E+00
(PID.TID 0000.0001) %MON dynstat_theta_mean           =   5.6542607376841E-01
(PID.TID 0000.0001) %MON dynstat_theta_sd             =   8.4905171992384E-01
(PID.TID 0000.0001) %MON dynstat_theta_del2           =   9.0528181923692E-07
(PID.TID 0000.0001) %MON dynstat_salt_max             =   3.4700000000000E+01
(PID.TID 0000.0001) %MON dynstat_salt_min             =   3.4000000000000E+01
(PID.TID 0000.0001) %MON dynstat_salt_mean            =   3.4498083912001E+01
(PID.TID 0000.0001) %MON dynstat_salt_sd              =   2.7015346167263E-01
(PID.TID 0000.0001) %MON dynstat_salt_del2            =   3.1065470589454E-07
(PID.TID 0000.0001) %MON advcfl_uvel_max              =   3.3816901256696E-04
(PID.TID 0000.0001) %MON advcfl_vvel_max              =   3.7225110571568E-04
(PID.TID 0000.0001) %MON advcfl_wvel_max              =   6.5596023799710E-04
(PID.TID 0000.0001) %MON advcfl_W_hf_max              =   6.5596023799710E-04
(PID.TID 0000.0001) %MON pe_b_mean                    =  -6.8280941400720E-01
(PID.TID 0000.0001) %MON ke_max                       =   4.9021917849482E-06
(PID.TID 0000.0001) %MON ke_mean                      =   1.4206253277116E-08
(PID.TID 0000.0001) %MON ke_vol                       =   4.6182895036333E+12
(PID.TID 0000.0001) // =======================================================
(PID.TID 0000.0001) // End MONITOR dynamic field statistics
(PID.TID 0000.0001) // =======================================================
(PID.TID 0000.0001) // =======================================================
(PID.TID 0000.0001) // Begin OBCS MONITOR field statistics
(PID.TID 0000.0001) // =======================================================
(PID.TID 0000.0001) %MON obc_N_vVel_max               =  -5.7232823841391E-08
(PID.TID 0000.0001) %MON obc_N_vVel_min               =  -5.7232823841392E-08
(PID.TID 0000.0001) %MON obc_N_vVel_mean              =  -5.7232823841391E-08
(PID.TID 0000.0001) %MON obc_N_vVel_sd                =   1.4183071981463E-14
(PID.TID 0000.0001) %MON obc_N_vVel_Int               =  -3.7773663735318E+00
(PID.TID 0000.0001) // =======================================================
(PID.TID 0000.0001) // End OBCS MONITOR field statistics
(PID.TID 0000.0001) // =======================================================
 cg2d: Sum(rhs),rhsMax =   3.01199543952128E+00  4.53051290002937E+02
(PID.TID 0000.0001)      cg2d_init_res =   1.61685652439579E-06
(PID.TID 0000.0001)      cg2d_iters(min,last) =      -1      67
(PID.TID 0000.0001)      cg2d_last_res =   9.79173900591266E-12
(PID.TID 0000.0001) // =======================================================
(PID.TID 0000.0001) // Begin MONITOR dynamic field statistics
(PID.TID 0000.0001) // =======================================================
(PID.TID 0000.0001) %MON time_tsnumber                =                   387
(PID.TID 0000.0001) %MON time_secondsf                =   3.8700000000000E+04
(PID.TID 0000.0001) %MON dynstat_eta_max              =   5.7965533178119E+00
(PID.TID 0000.0001) %MON dynstat_eta_min              =  -1.4176726357021E+01
(PID.TID 0000.0001) %MON dynstat_eta_mean             =  -2.5270155914039E+00
(PID.TID 0000.0001) %MON dynstat_eta_sd               =   4.9419580661660E+00
(PID.TID 0000.0001) %MON dynstat_eta_del2             =   1.9058068849178E-01
(PID.TID 0000.0001) %MON dynstat_uvel_max             =   1.7758814156839E-03
(PID.TID 0000.0001) %MON dynstat_uvel_min             =  -3.3949245367371E-03
(PID.TID 0000.0001) %MON dynstat_uvel_mean            =  -1.1668525115266E-09
(PID.TID 0000.0001) %MON dynstat_uvel_sd              =   1.3036801043221E-04
(PID.TID 0000.0001) %MON dynstat_uvel_del2            =   2.8417059167973E-07
(PID.TID 0000.0001) %MON dynstat_vvel_max             =   3.7349513095235E-03
(PID.TID 0000.0001) %MON dynstat_vvel_min             =  -1.8930625280360E-03
(PID.TID 0000.0001) %MON dynstat_vvel_mean            =  -4.6679916645591E-08
(PID.TID 0000.0001) %MON dynstat_vvel_sd              =   1.0883892330599E-04
(PID.TID 0000.0001) %MON dynstat_vvel_del2            =   3.1025950962508E-07
(PID.TID 0000.0001) %MON dynstat_wvel_max             =   1.3054694417116E-04
(PID.TID 0000.0001) %MON dynstat_wvel_min             =  -1.1280151155235E-04
(PID.TID 0000.0001) %MON dynstat_wvel_mean            =   1.3345791131686E-10
(PID.TID 0000.0001) %MON dynstat_wvel_sd              =   1.5528589603235E-05
(PID.TID 0000.0001) %MON dynstat_wvel_del2            =   7.2667411972114E-08
(PID.TID 0000.0001) %MON dynstat_theta_max            =   1.2000000000000E+00
(PID.TID 0000.0001) %MON dynstat_theta_min            =  -1.0000000000000E+00
(PID.TID 0000.0001) %MON dynstat_theta_mean           =   5.6542585613278E-01
(PID.TID 0000.0001) %MON dynstat_theta_sd             =   8.4905166949030E-01
(PID.TID 0000.0001) %MON dynstat_theta_del2           =   9.0410659853859E-07
(PID.TID 0000.0001) %MON dynstat_salt_max             =   3.4700000000000E+01
(PID.TID 0000.0001) %MON dynstat_salt_min             =   3.4000000000000E+01
(PID.TID 0000.0001) %MON dynstat_salt_mean            =   3.4498083825721E+01
(PID.TID 0000.0001) %MON dynstat_salt_sd              =   2.7015344639672E-01
(PID.TID 0000.0001) %MON dynstat_salt_del2            =   3.1047637834550E-07
(PID.TID 0000.0001) %MON advcfl_uvel_max              =   3.3949245367371E-04
(PID.TID 0000.0001) %MON advcfl_vvel_max              =   3.7349513095235E-04
(PID.TID 0000.0001) %MON advcfl_wvel_max              =   6.5273472085581E-04
(PID.TID 0000.0001) %MON advcfl_W_hf_max              =   6.5273472085581E-04
(PID.TID 0000.0001) %MON pe_b_mean                    =  -6.8280888499121E-01
(PID.TID 0000.0001) %MON ke_max                       =   4.8997459509375E-06
(PID.TID 0000.0001) %MON ke_mean                      =   1.4260927210067E-08
(PID.TID 0000.0001) %MON ke_vol                       =   4.6182895155035E+12
(PID.TID 0000.0001) // =======================================================
(PID.TID 0000.0001) // End MONITOR dynamic field statistics
(PID.TID 0000.0001) // =======================================================
(PID.TID 0000.0001) // =======================================================
(PID.TID 0000.0001) // Begin OBCS MONITOR field statistics
(PID.TID 0000.0001) // =======================================================
(PID.TID 0000.0001) %MON obc_N_vVel_max               =  -5.7521711664124E-08
(PID.TID 0000.0001) %MON obc_N_vVel_min               =  -5.7521711664127E-08
(PID.TID 0000.0001) %MON obc_N_vVel_mean              =  -5.7521711664124E-08
(PID.TID 0000.0001) %MON obc_N_vVel_sd                =   1.9018220869572E-14
(PID.TID 0000.0001) %MON obc_N_vVel_Int               =  -3.7964329698322E+00
(PID.TID 0000.0001) // =======================================================
(PID.TID 0000.0001) // End OBCS MONITOR field statistics
(PID.TID 0000.0001) // =======================================================
 cg2d: Sum(rhs),rhsMax =   3.01199313051256E+00  4.53051278128140E+02
(PID.TID 0000.0001)      cg2d_init_res =   1.61406856340706E-06
(PID.TID 0000.0001)      cg2d_iters(min,last) =      -1      67
(PID.TID 0000.0001)      cg2d_last_res =   9.88919971757300E-12
(PID.TID 0000.0001) // =======================================================
(PID.TID 0000.0001) // Begin MONITOR dynamic field statistics
(PID.TID 0000.0001) // =======================================================
(PID.TID 0000.0001) %MON time_tsnumber                =                   388
(PID.TID 0000.0001) %MON time_secondsf                =   3.8800000000000E+04
(PID.TID 0000.0001) %MON dynstat_eta_max              =   5.7965560498562E+00
(PID.TID 0000.0001) %MON dynstat_eta_min              =  -1.4176720833695E+01
(PID.TID 0000.0001) %MON dynstat_eta_mean             =  -2.5270135879479E+00
(PID.TID 0000.0001) %MON dynstat_eta_sd               =   4.9419574210950E+00
(PID.TID 0000.0001) %MON dynstat_eta_del2             =   1.9058069024065E-01
(PID.TID 0000.0001) %MON dynstat_uvel_max             =   1.7788989115424E-03
(PID.TID 0000.0001) %MON dynstat_uvel_min             =  -3.4081819343958E-03
(PID.TID 0000.0001) %MON dynstat_uvel_mean            =  -1.1446639359437E-09
(PID.TID 0000.0001) %MON dynstat_uvel_sd              =   1.3074405855104E-04
(PID.TID 0000.0001) %MON dynstat_uvel_del2            =   2.8409909050840E-07
(PID.TID 0000.0001) %MON dynstat_vvel_max             =   3.7473930178693E-03
(PID.TID 0000.0001) %MON dynstat_vvel_min             =  -1.8959991300385E-03
(PID.TID 0000.0001) %MON dynstat_vvel_mean            =  -4.7952844583188E-08
(PID.TID 0000.0001) %MON dynstat_vvel_sd              =   1.0889903140667E-04
(PID.TID 0000.0001) %MON dynstat_vvel_del2            =   3.0995841898321E-07
(PID.TID 0000.0001) %MON dynstat_wvel_max             =   1.2990201355096E-04
(PID.TID 0000.0001) %MON dynstat_wvel_min             =  -1.1336675022244E-04
(PID.TID 0000.0001) %MON dynstat_wvel_mean            =   1.2957522190715E-10
(PID.TID 0000.0001) %MON dynstat_wvel_sd              =   1.5497938640382E-05
(PID.TID 0000.0001) %MON dynstat_wvel_del2            =   7.2442678343059E-08
(PID.TID 0000.0001) %MON dynstat_theta_max            =   1.2000000000000E+00
(PID.TID 0000.0001) %MON dynstat_theta_min            =  -1.0000000000000E+00
(PID.TID 0000.0001) %MON dynstat_theta_mean           =   5.6542563822747E-01
(PID.TID 0000.0001) %MON dynstat_theta_sd             =   8.4905161896303E-01
(PID.TID 0000.0001) %MON dynstat_theta_del2           =   9.0296117690606E-07
(PID.TID 0000.0001) %MON dynstat_salt_max             =   3.4700000000000E+01
(PID.TID 0000.0001) %MON dynstat_salt_min             =   3.4000000000000E+01
(PID.TID 0000.0001) %MON dynstat_salt_mean            =   3.4498083739337E+01
(PID.TID 0000.0001) %MON dynstat_salt_sd              =   2.7015343107953E-01
(PID.TID 0000.0001) %MON dynstat_salt_del2            =   3.1030742716163E-07
(PID.TID 0000.0001) %MON advcfl_uvel_max              =   3.4081819343958E-04
(PID.TID 0000.0001) %MON advcfl_vvel_max              =   3.7473930178693E-04
(PID.TID 0000.0001) %MON advcfl_wvel_max              =   6.4951006775482E-04
(PID.TID 0000.0001) %MON advcfl_W_hf_max              =   6.4951006775482E-04
(PID.TID 0000.0001) %MON pe_b_mean                    =  -6.8280835505253E-01
(PID.TID 0000.0001) %MON ke_max                       =   4.8972341457858E-06
(PID.TID 0000.0001) %MON ke_mean                      =   1.4315643431007E-08
(PID.TID 0000.0001) %MON ke_vol                       =   4.6182895273871E+12
(PID.TID 0000.0001) // =======================================================
(PID.TID 0000.0001) // End MONITOR dynamic field statistics
(PID.TID 0000.0001) // =======================================================
(PID.TID 0000.0001) // =======================================================
(PID.TID 0000.0001) // Begin OBCS MONITOR field statistics
(PID.TID 0000.0001) // =======================================================
(PID.TID 0000.0001) %MON obc_N_vVel_max               =  -5.8345480665966E-08
(PID.TID 0000.0001) %MON obc_N_vVel_min               =  -5.8345480665967E-08
(PID.TID 0000.0001) %MON obc_N_vVel_mean              =  -5.8345480665967E-08
(PID.TID 0000.0001) %MON obc_N_vVel_sd                =  -1.6881623371730E-28
(PID.TID 0000.0001) %MON obc_N_vVel_Int               =  -3.8508017239538E+00
(PID.TID 0000.0001) // =======================================================
(PID.TID 0000.0001) // End OBCS MONITOR field statistics
(PID.TID 0000.0001) // =======================================================
 cg2d: Sum(rhs),rhsMax =   3.01199081803523E+00  4.53051266161629E+02
(PID.TID 0000.0001)      cg2d_init_res =   1.61080531501777E-06
(PID.TID 0000.0001)      cg2d_iters(min,last) =      -1      67
(PID.TID 0000.0001)      cg2d_last_res =   9.99488196969292E-12
(PID.TID 0000.0001) // =======================================================
(PID.TID 0000.0001) // Begin MONITOR dynamic field statistics
(PID.TID 0000.0001) // =======================================================
(PID.TID 0000.0001) %MON time_tsnumber                =                   389
(PID.TID 0000.0001) %MON time_secondsf                =   3.8900000000000E+04
(PID.TID 0000.0001) %MON dynstat_eta_max              =   5.7965587853945E+00
(PID.TID 0000.0001) %MON dynstat_eta_min              =  -1.4176715300677E+01
(PID.TID 0000.0001) %MON dynstat_eta_mean             =  -2.5270115810705E+00
(PID.TID 0000.0001) %MON dynstat_eta_sd               =   4.9419567746737E+00
(PID.TID 0000.0001) %MON dynstat_eta_del2             =   1.9058069200557E-01
(PID.TID 0000.0001) %MON dynstat_uvel_max             =   1.7819121400127E-03
(PID.TID 0000.0001) %MON dynstat_uvel_min             =  -3.4214624658517E-03
(PID.TID 0000.0001) %MON dynstat_uvel_mean            =  -1.1246297090011E-09
(PID.TID 0000.0001) %MON dynstat_uvel_sd              =   1.3112001276869E-04
(PID.TID 0000.0001) %MON dynstat_uvel_del2            =   2.8403346229576E-07
(PID.TID 0000.0001) %MON dynstat_vvel_max             =   3.7598362912841E-03
(PID.TID 0000.0001) %MON dynstat_vvel_min             =  -1.8988983964787E-03
(PID.TID 0000.0001) %MON dynstat_vvel_mean            =  -4.9734836578810E-08
(PID.TID 0000.0001) %MON dynstat_vvel_sd              =   1.0895838179047E-04
(PID.TID 0000.0001) %MON dynstat_vvel_del2            =   3.0965585558333E-07
(PID.TID 0000.0001) %MON dynstat_wvel_max             =   1.2925728341106E-04
(PID.TID 0000.0001) %MON dynstat_wvel_min             =  -1.1393315477335E-04
(PID.TID 0000.0001) %MON dynstat_wvel_mean            =   1.2602377676470E-10
(PID.TID 0000.0001) %MON dynstat_wvel_sd              =   1.5466400042014E-05
(PID.TID 0000.0001) %MON dynstat_wvel_del2            =   7.2202871234609E-08
(PID.TID 0000.0001) %MON dynstat_theta_max            =   1.2000000000000E+00
(PID.TID 0000.0001) %MON dynstat_theta_min            =  -1.0000000000000E+00
(PID.TID 0000.0001) %MON dynstat_theta_mean           =   5.6542542004937E-01
(PID.TID 0000.0001) %MON dynstat_theta_sd             =   8.4905156833929E-01
(PID.TID 0000.0001) %MON dynstat_theta_del2           =   9.0184201135885E-07
(PID.TID 0000.0001) %MON dynstat_salt_max             =   3.4700000000000E+01
(PID.TID 0000.0001) %MON dynstat_salt_min             =   3.4000000000000E+01
(PID.TID 0000.0001) %MON dynstat_salt_mean            =   3.4498083652849E+01
(PID.TID 0000.0001) %MON dynstat_salt_sd              =   2.7015341571986E-01
(PID.TID 0000.0001) %MON dynstat_salt_del2            =   3.1014678897469E-07
(PID.TID 0000.0001) %MON advcfl_uvel_max              =   3.4214624658517E-04
(PID.TID 0000.0001) %MON advcfl_vvel_max              =   3.7598362912841E-04
(PID.TID 0000.0001) %MON advcfl_wvel_max              =   6.4628641705529E-04
(PID.TID 0000.0001) %MON advcfl_W_hf_max              =   6.4628641705529E-04
(PID.TID 0000.0001) %MON pe_b_mean                    =  -6.8280782408317E-01
(PID.TID 0000.0001) %MON ke_max                       =   4.8946568436112E-06
(PID.TID 0000.0001) %MON ke_mean                      =   1.4370407407362E-08
(PID.TID 0000.0001) %MON ke_vol                       =   4.6182895392876E+12
(PID.TID 0000.0001) // =======================================================
(PID.TID 0000.0001) // End MONITOR dynamic field statistics
(PID.TID 0000.0001) // =======================================================
(PID.TID 0000.0001) // =======================================================
(PID.TID 0000.0001) // Begin OBCS MONITOR field statistics
(PID.TID 0000.0001) // =======================================================
(PID.TID 0000.0001) %MON obc_N_vVel_max               =  -5.9666994881294E-08
(PID.TID 0000.0001) %MON obc_N_vVel_min               =  -5.9666994881296E-08
(PID.TID 0000.0001) %MON obc_N_vVel_mean              =  -5.9666994881294E-08
(PID.TID 0000.0001) %MON obc_N_vVel_sd                =   1.9479273482636E-14
(PID.TID 0000.0001) %MON obc_N_vVel_Int               =  -3.9380216621654E+00
(PID.TID 0000.0001) // =======================================================
(PID.TID 0000.0001) // End OBCS MONITOR field statistics
(PID.TID 0000.0001) // =======================================================
 cg2d: Sum(rhs),rhsMax =   3.01198850124070E+00  4.53051254139837E+02
(PID.TID 0000.0001)      cg2d_init_res =   1.60719271360714E-06
(PID.TID 0000.0001)      cg2d_iters(min,last) =      -1      68
(PID.TID 0000.0001)      cg2d_last_res =   8.32043993329330E-12
(PID.TID 0000.0001) // =======================================================
(PID.TID 0000.0001) // Begin MONITOR dynamic field statistics
(PID.TID 0000.0001) // =======================================================
(PID.TID 0000.0001) %MON time_tsnumber                =                   390
(PID.TID 0000.0001) %MON time_secondsf                =   3.9000000000000E+04
(PID.TID 0000.0001) %MON dynstat_eta_max              =   5.7965615251836E+00
(PID.TID 0000.0001) %MON dynstat_eta_min              =  -1.4176709756729E+01
(PID.TID 0000.0001) %MON dynstat_eta_mean             =  -2.5270095702627E+00
(PID.TID 0000.0001) %MON dynstat_eta_sd               =   4.9419561268023E+00
(PID.TID 0000.0001) %MON dynstat_eta_del2             =   1.9058069378757E-01
(PID.TID 0000.0001) %MON dynstat_uvel_max             =   1.7849212681806E-03
(PID.TID 0000.0001) %MON dynstat_uvel_min             =  -3.4347662803125E-03
(PID.TID 0000.0001) %MON dynstat_uvel_mean            =  -1.1075480383771E-09
(PID.TID 0000.0001) %MON dynstat_uvel_sd              =   1.3149586025089E-04
(PID.TID 0000.0001) %MON dynstat_uvel_del2            =   2.8397366743989E-07
(PID.TID 0000.0001) %MON dynstat_vvel_max             =   3.7722812158039E-03
(PID.TID 0000.0001) %MON dynstat_vvel_min             =  -1.9017601130296E-03
(PID.TID 0000.0001) %MON dynstat_vvel_mean            =  -5.1958413569952E-08
(PID.TID 0000.0001) %MON dynstat_vvel_sd              =   1.0901708024140E-04
(PID.TID 0000.0001) %MON dynstat_vvel_del2            =   3.0935595659105E-07
(PID.TID 0000.0001) %MON dynstat_wvel_max             =   1.2861277645225E-04
(PID.TID 0000.0001) %MON dynstat_wvel_min             =  -1.1450071586854E-04
(PID.TID 0000.0001) %MON dynstat_wvel_mean            =   1.2291454394147E-10
(PID.TID 0000.0001) %MON dynstat_wvel_sd              =   1.5434544227849E-05
(PID.TID 0000.0001) %MON dynstat_wvel_del2            =   7.1956531850026E-08
(PID.TID 0000.0001) %MON dynstat_theta_max            =   1.2000000000000E+00
(PID.TID 0000.0001) %MON dynstat_theta_min            =  -1.0000000000000E+00
(PID.TID 0000.0001) %MON dynstat_theta_mean           =   5.6542520159538E-01
(PID.TID 0000.0001) %MON dynstat_theta_sd             =   8.4905151760579E-01
(PID.TID 0000.0001) %MON dynstat_theta_del2           =   9.0074454352884E-07
(PID.TID 0000.0001) %MON dynstat_salt_max             =   3.4700000000000E+01
(PID.TID 0000.0001) %MON dynstat_salt_min             =   3.4000000000000E+01
(PID.TID 0000.0001) %MON dynstat_salt_mean            =   3.4498083566254E+01
(PID.TID 0000.0001) %MON dynstat_salt_sd              =   2.7015340031370E-01
(PID.TID 0000.0001) %MON dynstat_salt_del2            =   3.0999309503660E-07
(PID.TID 0000.0001) %MON advcfl_uvel_max              =   3.4347662803125E-04
(PID.TID 0000.0001) %MON advcfl_vvel_max              =   3.7722812158039E-04
(PID.TID 0000.0001) %MON advcfl_wvel_max              =   6.4306388226125E-04
(PID.TID 0000.0001) %MON advcfl_W_hf_max              =   6.4306388226125E-04
(PID.TID 0000.0001) %MON pe_b_mean                    =  -6.8280729198979E-01
(PID.TID 0000.0001) %MON ke_max                       =   4.8920145105669E-06
(PID.TID 0000.0001) %MON ke_mean                      =   1.4425228775360E-08
(PID.TID 0000.0001) %MON ke_vol                       =   4.6182895512084E+12
(PID.TID 0000.0001) // =======================================================
(PID.TID 0000.0001) // End MONITOR dynamic field statistics
(PID.TID 0000.0001) // =======================================================
(PID.TID 0000.0001) // =======================================================
(PID.TID 0000.0001) // Begin OBCS MONITOR field statistics
(PID.TID 0000.0001) // =======================================================
(PID.TID 0000.0001) %MON obc_N_vVel_max               =  -6.1433586978490E-08
(PID.TID 0000.0001) %MON obc_N_vVel_min               =  -6.1433586978491E-08
(PID.TID 0000.0001) %MON obc_N_vVel_mean              =  -6.1433586978490E-08
(PID.TID 0000.0001) %MON obc_N_vVel_sd                =   7.5885997444281E-15
(PID.TID 0000.0001) %MON obc_N_vVel_Int               =  -4.0546167405803E+00
(PID.TID 0000.0001) // =======================================================
(PID.TID 0000.0001) // End OBCS MONITOR field statistics
(PID.TID 0000.0001) // =======================================================
 cg2d: Sum(rhs),rhsMax =   3.01198617937756E+00  4.53051242099683E+02
(PID.TID 0000.0001)      cg2d_init_res =   1.60349583114103E-06
(PID.TID 0000.0001)      cg2d_iters(min,last) =      -1      68
(PID.TID 0000.0001)      cg2d_last_res =   8.37292854607172E-12
(PID.TID 0000.0001) // =======================================================
(PID.TID 0000.0001) // Begin MONITOR dynamic field statistics
(PID.TID 0000.0001) // =======================================================
(PID.TID 0000.0001) %MON time_tsnumber                =                   391
(PID.TID 0000.0001) %MON time_secondsf                =   3.9100000000000E+04
(PID.TID 0000.0001) %MON dynstat_eta_max              =   5.7965642692191E+00
(PID.TID 0000.0001) %MON dynstat_eta_min              =  -1.4176704201361E+01
(PID.TID 0000.0001) %MON dynstat_eta_mean             =  -2.5270075551001E+00
(PID.TID 0000.0001) %MON dynstat_eta_sd               =   4.9419554774177E+00
(PID.TID 0000.0001) %MON dynstat_eta_del2             =   1.9058069558689E-01
(PID.TID 0000.0001) %MON dynstat_uvel_max             =   1.7879264760605E-03
(PID.TID 0000.0001) %MON dynstat_uvel_min             =  -3.4480935224028E-03
(PID.TID 0000.0001) %MON dynstat_uvel_mean            =  -1.0940733578124E-09
(PID.TID 0000.0001) %MON dynstat_uvel_sd              =   1.3187158804091E-04
(PID.TID 0000.0001) %MON dynstat_uvel_del2            =   2.8391966442399E-07
(PID.TID 0000.0001) %MON dynstat_vvel_max             =   3.7847279822023E-03
(PID.TID 0000.0001) %MON dynstat_vvel_min             =  -1.9045841479155E-03
(PID.TID 0000.0001) %MON dynstat_vvel_mean            =  -5.4541318236492E-08
(PID.TID 0000.0001) %MON dynstat_vvel_sd              =   1.0907524686444E-04
(PID.TID 0000.0001) %MON dynstat_vvel_del2            =   3.0906322753629E-07
(PID.TID 0000.0001) %MON dynstat_wvel_max             =   1.2796853446520E-04
(PID.TID 0000.0001) %MON dynstat_wvel_min             =  -1.1506945552894E-04
(PID.TID 0000.0001) %MON dynstat_wvel_mean            =   1.2034599221844E-10
(PID.TID 0000.0001) %MON dynstat_wvel_sd              =   1.5403004389974E-05
(PID.TID 0000.0001) %MON dynstat_wvel_del2            =   7.1713022449877E-08
(PID.TID 0000.0001) %MON dynstat_theta_max            =   1.2000000000000E+00
(PID.TID 0000.0001) %MON dynstat_theta_min            =  -1.0000000000000E+00
(PID.TID 0000.0001) %MON dynstat_theta_mean           =   5.6542498286369E-01
(PID.TID 0000.0001) %MON dynstat_theta_sd             =   8.4905146674657E-01
(PID.TID 0000.0001) %MON dynstat_theta_del2           =   8.9966383229556E-07
(PID.TID 0000.0001) %MON dynstat_salt_max             =   3.4700000000000E+01
(PID.TID 0000.0001) %MON dynstat_salt_min             =   3.4000000000000E+01
(PID.TID 0000.0001) %MON dynstat_salt_mean            =   3.4498083479554E+01
(PID.TID 0000.0001) %MON dynstat_salt_sd              =   2.7015338485570E-01
(PID.TID 0000.0001) %MON dynstat_salt_del2            =   3.0984487711617E-07
(PID.TID 0000.0001) %MON advcfl_uvel_max              =   3.4480935224028E-04
(PID.TID 0000.0001) %MON advcfl_vvel_max              =   3.7847279822023E-04
(PID.TID 0000.0001) %MON advcfl_wvel_max              =   6.3984267232602E-04
(PID.TID 0000.0001) %MON advcfl_W_hf_max              =   6.3984267232602E-04
(PID.TID 0000.0001) %MON pe_b_mean                    =  -6.8280675869982E-01
(PID.TID 0000.0001) %MON ke_max                       =   4.8893076910249E-06
(PID.TID 0000.0001) %MON ke_mean                      =   1.4480118724291E-08
(PID.TID 0000.0001) %MON ke_vol                       =   4.6182895631526E+12
(PID.TID 0000.0001) // =======================================================
(PID.TID 0000.0001) // End MONITOR dynamic field statistics
(PID.TID 0000.0001) // =======================================================
(PID.TID 0000.0001) // =======================================================
(PID.TID 0000.0001) // Begin OBCS MONITOR field statistics
(PID.TID 0000.0001) // =======================================================
(PID.TID 0000.0001) %MON obc_N_vVel_max               =  -6.3579060856603E-08
(PID.TID 0000.0001) %MON obc_N_vVel_min               =  -6.3579060856604E-08
(PID.TID 0000.0001) %MON obc_N_vVel_mean              =  -6.3579060856603E-08
(PID.TID 0000.0001) %MON obc_N_vVel_sd                =   1.1614439925920E-14
(PID.TID 0000.0001) %MON obc_N_vVel_Int               =  -4.1962180165358E+00
(PID.TID 0000.0001) // =======================================================
(PID.TID 0000.0001) // End OBCS MONITOR field statistics
(PID.TID 0000.0001) // =======================================================
 cg2d: Sum(rhs),rhsMax =   3.01198385178169E+00  4.53051230078077E+02
(PID.TID 0000.0001)      cg2d_init_res =   1.59966473500027E-06
(PID.TID 0000.0001)      cg2d_iters(min,last) =      -1      68
(PID.TID 0000.0001)      cg2d_last_res =   8.41411733442094E-12
(PID.TID 0000.0001) // =======================================================
(PID.TID 0000.0001) // Begin MONITOR dynamic field statistics
(PID.TID 0000.0001) // =======================================================
(PID.TID 0000.0001) %MON time_tsnumber                =                   392
(PID.TID 0000.0001) %MON time_secondsf                =   3.9200000000000E+04
(PID.TID 0000.0001) %MON dynstat_eta_max              =   5.7965670181895E+00
(PID.TID 0000.0001) %MON dynstat_eta_min              =  -1.4176698633889E+01
(PID.TID 0000.0001) %MON dynstat_eta_mean             =  -2.5270055352315E+00
(PID.TID 0000.0001) %MON dynstat_eta_sd               =   4.9419548264894E+00
(PID.TID 0000.0001) %MON dynstat_eta_del2             =   1.9058069740434E-01
(PID.TID 0000.0001) %MON dynstat_uvel_max             =   1.7909279208581E-03
(PID.TID 0000.0001) %MON dynstat_uvel_min             =  -3.4614443460015E-03
(PID.TID 0000.0001) %MON dynstat_uvel_mean            =  -1.0847487019557E-09
(PID.TID 0000.0001) %MON dynstat_uvel_sd              =   1.3224718310449E-04
(PID.TID 0000.0001) %MON dynstat_uvel_del2            =   2.8387141031902E-07
(PID.TID 0000.0001) %MON dynstat_vvel_max             =   3.7971766346132E-03
(PID.TID 0000.0001) %MON dynstat_vvel_min             =  -1.9073702381354E-03
(PID.TID 0000.0001) %MON dynstat_vvel_mean            =  -5.7392641017861E-08
(PID.TID 0000.0001) %MON dynstat_vvel_sd              =   1.0913298997088E-04
(PID.TID 0000.0001) %MON dynstat_vvel_del2            =   3.0878190379230E-07
(PID.TID 0000.0001) %MON dynstat_wvel_max             =   1.2732456728820E-04
(PID.TID 0000.0001) %MON dynstat_wvel_min             =  -1.1563935086940E-04
(PID.TID 0000.0001) %MON dynstat_wvel_mean            =   1.1838301695535E-10
(PID.TID 0000.0001) %MON dynstat_wvel_sd              =   1.5372391632491E-05
(PID.TID 0000.0001) %MON dynstat_wvel_del2            =   7.1481264848108E-08
(PID.TID 0000.0001) %MON dynstat_theta_max            =   1.2000000000000E+00
(PID.TID 0000.0001) %MON dynstat_theta_min            =  -1.0000000000000E+00
(PID.TID 0000.0001) %MON dynstat_theta_mean           =   5.6542476385113E-01
(PID.TID 0000.0001) %MON dynstat_theta_sd             =   8.4905141574102E-01
(PID.TID 0000.0001) %MON dynstat_theta_del2           =   8.9859519169201E-07
(PID.TID 0000.0001) %MON dynstat_salt_max             =   3.4700000000000E+01
(PID.TID 0000.0001) %MON dynstat_salt_min             =   3.4000000000000E+01
(PID.TID 0000.0001) %MON dynstat_salt_mean            =   3.4498083392746E+01
(PID.TID 0000.0001) %MON dynstat_salt_sd              =   2.7015336933939E-01
(PID.TID 0000.0001) %MON dynstat_salt_del2            =   3.0970071255876E-07
(PID.TID 0000.0001) %MON advcfl_uvel_max              =   3.4614443460015E-04
(PID.TID 0000.0001) %MON advcfl_vvel_max              =   3.7971766346132E-04
(PID.TID 0000.0001) %MON advcfl_wvel_max              =   6.3662283644099E-04
(PID.TID 0000.0001) %MON advcfl_W_hf_max              =   6.3662283644099E-04
(PID.TID 0000.0001) %MON pe_b_mean                    =  -6.8280622415668E-01
(PID.TID 0000.0001) %MON ke_max                       =   4.8865368388997E-06
(PID.TID 0000.0001) %MON ke_mean                      =   1.4535087155200E-08
(PID.TID 0000.0001) %MON ke_vol                       =   4.6182895751227E+12
(PID.TID 0000.0001) // =======================================================
(PID.TID 0000.0001) // End MONITOR dynamic field statistics
(PID.TID 0000.0001) // =======================================================
(PID.TID 0000.0001) // =======================================================
(PID.TID 0000.0001) // Begin OBCS MONITOR field statistics
(PID.TID 0000.0001) // =======================================================
(PID.TID 0000.0001) %MON obc_N_vVel_max               =  -6.6025626899316E-08
(PID.TID 0000.0001) %MON obc_N_vVel_min               =  -6.6025626899317E-08
(PID.TID 0000.0001) %MON obc_N_vVel_mean              =  -6.6025626899316E-08
(PID.TID 0000.0001) %MON obc_N_vVel_sd                =   1.2809491335958E-14
(PID.TID 0000.0001) %MON obc_N_vVel_Int               =  -4.3576913753549E+00
(PID.TID 0000.0001) // =======================================================
(PID.TID 0000.0001) // End OBCS MONITOR field statistics
(PID.TID 0000.0001) // =======================================================
 cg2d: Sum(rhs),rhsMax =   3.01198151791480E+00  4.53051218110788E+02
(PID.TID 0000.0001)      cg2d_init_res =   1.59600809954405E-06
(PID.TID 0000.0001)      cg2d_iters(min,last) =      -1      68
(PID.TID 0000.0001)      cg2d_last_res =   8.43244058915337E-12
(PID.TID 0000.0001) // =======================================================
(PID.TID 0000.0001) // Begin MONITOR dynamic field statistics
(PID.TID 0000.0001) // =======================================================
(PID.TID 0000.0001) %MON time_tsnumber                =                   393
(PID.TID 0000.0001) %MON time_secondsf                =   3.9300000000000E+04
(PID.TID 0000.0001) %MON dynstat_eta_max              =   5.7965697722499E+00
(PID.TID 0000.0001) %MON dynstat_eta_min              =  -1.4176693053977E+01
(PID.TID 0000.0001) %MON dynstat_eta_mean             =  -2.5270035104046E+00
(PID.TID 0000.0001) %MON dynstat_eta_sd               =   4.9419541740173E+00
(PID.TID 0000.0001) %MON dynstat_eta_del2             =   1.9058069924016E-01
(PID.TID 0000.0001) %MON dynstat_uvel_max             =   1.7939257743862E-03
(PID.TID 0000.0001) %MON dynstat_uvel_min             =  -3.4748188961577E-03
(PID.TID 0000.0001) %MON dynstat_uvel_mean            =  -1.0799381888503E-09
(PID.TID 0000.0001) %MON dynstat_uvel_sd              =   1.3262263225689E-04
(PID.TID 0000.0001) %MON dynstat_uvel_del2            =   2.8382886028212E-07
(PID.TID 0000.0001) %MON dynstat_vvel_max             =   3.8096273135260E-03
(PID.TID 0000.0001) %MON dynstat_vvel_min             =  -1.9101182000325E-03
(PID.TID 0000.0001) %MON dynstat_vvel_mean            =  -6.0413987303253E-08
(PID.TID 0000.0001) %MON dynstat_vvel_sd              =   1.0919038168864E-04
(PID.TID 0000.0001) %MON dynstat_vvel_del2            =   3.0851535693269E-07
(PID.TID 0000.0001) %MON dynstat_wvel_max             =   1.2668090314079E-04
(PID.TID 0000.0001) %MON dynstat_wvel_min             =  -1.1621040787904E-04
(PID.TID 0000.0001) %MON dynstat_wvel_mean            =   1.1708773870650E-10
(PID.TID 0000.0001) %MON dynstat_wvel_sd              =   1.5343210732332E-05
(PID.TID 0000.0001) %MON dynstat_wvel_del2            =   7.1268529014786E-08
(PID.TID 0000.0001) %MON dynstat_theta_max            =   1.2000000000000E+00
(PID.TID 0000.0001) %MON dynstat_theta_min            =  -1.0000000000000E+00
(PID.TID 0000.0001) %MON dynstat_theta_mean           =   5.6542454455528E-01
(PID.TID 0000.0001) %MON dynstat_theta_sd             =   8.4905136460271E-01
(PID.TID 0000.0001) %MON dynstat_theta_del2           =   8.9753542147716E-07
(PID.TID 0000.0001) %MON dynstat_salt_max             =   3.4700000000000E+01
(PID.TID 0000.0001) %MON dynstat_salt_min             =   3.4000000000000E+01
(PID.TID 0000.0001) %MON dynstat_salt_mean            =   3.4498083305829E+01
(PID.TID 0000.0001) %MON dynstat_salt_sd              =   2.7015335376900E-01
(PID.TID 0000.0001) %MON dynstat_salt_del2            =   3.0955968004940E-07
(PID.TID 0000.0001) %MON advcfl_uvel_max              =   3.4748188961577E-04
(PID.TID 0000.0001) %MON advcfl_vvel_max              =   3.8096273135260E-04
(PID.TID 0000.0001) %MON advcfl_wvel_max              =   6.3340451570397E-04
(PID.TID 0000.0001) %MON advcfl_W_hf_max              =   6.3340451570397E-04
(PID.TID 0000.0001) %MON pe_b_mean                    =  -6.8280568832595E-01
(PID.TID 0000.0001) %MON ke_max                       =   4.8837024728668E-06
(PID.TID 0000.0001) %MON ke_mean                      =   1.4590140004029E-08
(PID.TID 0000.0001) %MON ke_vol                       =   4.6182895871207E+12
(PID.TID 0000.0001) // =======================================================
(PID.TID 0000.0001) // End MONITOR dynamic field statistics
(PID.TID 0000.0001) // =======================================================
(PID.TID 0000.0001) // =======================================================
(PID.TID 0000.0001) // Begin OBCS MONITOR field statistics
(PID.TID 0000.0001) // =======================================================
(PID.TID 0000.0001) %MON obc_N_vVel_max               =  -6.8688546240738E-08
(PID.TID 0000.0001) %MON obc_N_vVel_min               =  -6.8688546240741E-08
(PID.TID 0000.0001) %MON obc_N_vVel_mean              =  -6.8688546240738E-08
(PID.TID 0000.0001) %MON obc_N_vVel_sd                =   1.8882932218273E-14
(PID.TID 0000.0001) %MON obc_N_vVel_Int               =  -4.5334440518887E+00
(PID.TID 0000.0001) // =======================================================
(PID.TID 0000.0001) // End OBCS MONITOR field statistics
(PID.TID 0000.0001) // =======================================================
 cg2d: Sum(rhs),rhsMax =   3.01197917735926E+00  4.53051206232228E+02
(PID.TID 0000.0001)      cg2d_init_res =   1.59266969764804E-06
(PID.TID 0000.0001)      cg2d_iters(min,last) =      -1      68
(PID.TID 0000.0001)      cg2d_last_res =   8.45410909083857E-12
(PID.TID 0000.0001) // =======================================================
(PID.TID 0000.0001) // Begin MONITOR dynamic field statistics
(PID.TID 0000.0001) // =======================================================
(PID.TID 0000.0001) %MON time_tsnumber                =                   394
(PID.TID 0000.0001) %MON time_secondsf                =   3.9400000000000E+04
(PID.TID 0000.0001) %MON dynstat_eta_max              =   5.7965725314308E+00
(PID.TID 0000.0001) %MON dynstat_eta_min              =  -1.4176687461564E+01
(PID.TID 0000.0001) %MON dynstat_eta_mean             =  -2.5270014804611E+00
(PID.TID 0000.0001) %MON dynstat_eta_sd               =   4.9419535200326E+00
(PID.TID 0000.0001) %MON dynstat_eta_del2             =   1.9058070109465E-01
(PID.TID 0000.0001) %MON dynstat_uvel_max             =   1.7969202034376E-03
(PID.TID 0000.0001) %MON dynstat_uvel_min             =  -3.4882173217072E-03
(PID.TID 0000.0001) %MON dynstat_uvel_mean            =  -1.0798765215561E-09
(PID.TID 0000.0001) %MON dynstat_uvel_sd              =   1.3299792215805E-04
(PID.TID 0000.0001) %MON dynstat_uvel_del2            =   2.8379196799252E-07
(PID.TID 0000.0001) %MON dynstat_vvel_max             =   3.8220801387525E-03
(PID.TID 0000.0001) %MON dynstat_vvel_min             =  -1.9128278318972E-03
(PID.TID 0000.0001) %MON dynstat_vvel_mean            =  -6.3502941553330E-08
(PID.TID 0000.0001) %MON dynstat_vvel_sd              =   1.0924743858461E-04
(PID.TID 0000.0001) %MON dynstat_vvel_del2            =   3.0826563460415E-07
(PID.TID 0000.0001) %MON dynstat_wvel_max             =   1.2603756412631E-04
(PID.TID 0000.0001) %MON dynstat_wvel_min             =  -1.1678262511909E-04
(PID.TID 0000.0001) %MON dynstat_wvel_mean            =   1.1649928076183E-10
(PID.TID 0000.0001) %MON dynstat_wvel_sd              =   1.5315794674697E-05
(PID.TID 0000.0001) %MON dynstat_wvel_del2            =   7.1079479089685E-08
(PID.TID 0000.0001) %MON dynstat_theta_max            =   1.2000000000000E+00
(PID.TID 0000.0001) %MON dynstat_theta_min            =  -1.0000000000000E+00
(PID.TID 0000.0001) %MON dynstat_theta_mean           =   5.6542432497299E-01
(PID.TID 0000.0001) %MON dynstat_theta_sd             =   8.4905131334529E-01
(PID.TID 0000.0001) %MON dynstat_theta_del2           =   8.9648274385770E-07
(PID.TID 0000.0001) %MON dynstat_salt_max             =   3.4700000000000E+01
(PID.TID 0000.0001) %MON dynstat_salt_min             =   3.4000000000000E+01
(PID.TID 0000.0001) %MON dynstat_salt_mean            =   3.4498083218804E+01
(PID.TID 0000.0001) %MON dynstat_salt_sd              =   2.7015333814869E-01
(PID.TID 0000.0001) %MON dynstat_salt_del2            =   3.0942125627355E-07
(PID.TID 0000.0001) %MON advcfl_uvel_max              =   3.4882173217072E-04
(PID.TID 0000.0001) %MON advcfl_vvel_max              =   3.8220801387525E-04
(PID.TID 0000.0001) %MON advcfl_wvel_max              =   6.3018782063153E-04
(PID.TID 0000.0001) %MON advcfl_W_hf_max              =   6.3018782063153E-04
(PID.TID 0000.0001) %MON pe_b_mean                    =  -6.8280515119254E-01
(PID.TID 0000.0001) %MON ke_max                       =   4.8808050991834E-06
(PID.TID 0000.0001) %MON ke_mean                      =   1.4645277113035E-08
(PID.TID 0000.0001) %MON ke_vol                       =   4.6182895991482E+12
(PID.TID 0000.0001) // =======================================================
(PID.TID 0000.0001) // End MONITOR dynamic field statistics
(PID.TID 0000.0001) // =======================================================
(PID.TID 0000.0001) // =======================================================
(PID.TID 0000.0001) // Begin OBCS MONITOR field statistics
(PID.TID 0000.0001) // =======================================================
(PID.TID 0000.0001) %MON obc_N_vVel_max               =  -7.1476837203375E-08
(PID.TID 0000.0001) %MON obc_N_vVel_min               =  -7.1476837203375E-08
(PID.TID 0000.0001) %MON obc_N_vVel_mean              =  -7.1476837203375E-08
(PID.TID 0000.0001) %MON obc_N_vVel_sd                =  -1.7276053824340E-28
(PID.TID 0000.0001) %MON obc_N_vVel_Int               =  -4.7174712554227E+00
(PID.TID 0000.0001) // =======================================================
(PID.TID 0000.0001) // End OBCS MONITOR field statistics
(PID.TID 0000.0001) // =======================================================
 cg2d: Sum(rhs),rhsMax =   3.01197682985246E+00  4.53051194474418E+02
(PID.TID 0000.0001)      cg2d_init_res =   1.58974995304841E-06
(PID.TID 0000.0001)      cg2d_iters(min,last) =      -1      68
(PID.TID 0000.0001)      cg2d_last_res =   8.50247914167888E-12
(PID.TID 0000.0001) // =======================================================
(PID.TID 0000.0001) // Begin MONITOR dynamic field statistics
(PID.TID 0000.0001) // =======================================================
(PID.TID 0000.0001) %MON time_tsnumber                =                   395
(PID.TID 0000.0001) %MON time_secondsf                =   3.9500000000000E+04
(PID.TID 0000.0001) %MON dynstat_eta_max              =   5.7965752955911E+00
(PID.TID 0000.0001) %MON dynstat_eta_min              =  -1.4176681856790E+01
(PID.TID 0000.0001) %MON dynstat_eta_mean             =  -2.5269994453591E+00
(PID.TID 0000.0001) %MON dynstat_eta_sd               =   4.9419528646113E+00
(PID.TID 0000.0001) %MON dynstat_eta_del2             =   1.9058070296828E-01
(PID.TID 0000.0001) %MON dynstat_uvel_max             =   1.7999113733378E-03
(PID.TID 0000.0001) %MON dynstat_uvel_min             =  -3.5016397704100E-03
(PID.TID 0000.0001) %MON dynstat_uvel_mean            =  -1.0846757132877E-09
(PID.TID 0000.0001) %MON dynstat_uvel_sd              =   1.3337303933993E-04
(PID.TID 0000.0001) %MON dynstat_uvel_del2            =   2.8376068641436E-07
(PID.TID 0000.0001) %MON dynstat_vvel_max             =   3.8345352289537E-03
(PID.TID 0000.0001) %MON dynstat_vvel_min             =  -1.9154989336139E-03
(PID.TID 0000.0001) %MON dynstat_vvel_mean            =  -6.6556533243472E-08
(PID.TID 0000.0001) %MON dynstat_vvel_sd              =   1.0930410945161E-04
(PID.TID 0000.0001) %MON dynstat_vvel_del2            =   3.0803318675917E-07
(PID.TID 0000.0001) %MON dynstat_wvel_max             =   1.2539457236116E-04
(PID.TID 0000.0001) %MON dynstat_wvel_min             =  -1.1735600105274E-04
(PID.TID 0000.0001) %MON dynstat_wvel_mean            =   1.1662244863984E-10
(PID.TID 0000.0001) %MON dynstat_wvel_sd              =   1.5290262204595E-05
(PID.TID 0000.0001) %MON dynstat_wvel_del2            =   7.0915580334491E-08
(PID.TID 0000.0001) %MON dynstat_theta_max            =   1.2000000000000E+00
(PID.TID 0000.0001) %MON dynstat_theta_min            =  -1.0000000000000E+00
(PID.TID 0000.0001) %MON dynstat_theta_mean           =   5.6542410510261E-01
(PID.TID 0000.0001) %MON dynstat_theta_sd             =   8.4905126194598E-01
(PID.TID 0000.0001) %MON dynstat_theta_del2           =   8.9543689167423E-07
(PID.TID 0000.0001) %MON dynstat_salt_max             =   3.4700000000000E+01
(PID.TID 0000.0001) %MON dynstat_salt_min             =   3.4000000000000E+01
(PID.TID 0000.0001) %MON dynstat_salt_mean            =   3.4498083131667E+01
(PID.TID 0000.0001) %MON dynstat_salt_sd              =   2.7015332247121E-01
(PID.TID 0000.0001) %MON dynstat_salt_del2            =   3.0928535845044E-07
(PID.TID 0000.0001) %MON advcfl_uvel_max              =   3.5016397704100E-04
(PID.TID 0000.0001) %MON advcfl_vvel_max              =   3.8345352289537E-04
(PID.TID 0000.0001) %MON advcfl_wvel_max              =   6.2697286180580E-04
(PID.TID 0000.0001) %MON advcfl_W_hf_max              =   6.2697286180580E-04
(PID.TID 0000.0001) %MON pe_b_mean                    =  -6.8280461276773E-01
(PID.TID 0000.0001) %MON ke_max                       =   4.8778452212739E-06
(PID.TID 0000.0001) %MON ke_mean                      =   1.4700490883128E-08
(PID.TID 0000.0001) %MON ke_vol                       =   4.6182896112061E+12
(PID.TID 0000.0001) // =======================================================
(PID.TID 0000.0001) // End MONITOR dynamic field statistics
(PID.TID 0000.0001) // =======================================================
(PID.TID 0000.0001) // =======================================================
(PID.TID 0000.0001) // Begin OBCS MONITOR field statistics
(PID.TID 0000.0001) // =======================================================
(PID.TID 0000.0001) %MON obc_N_vVel_max               =  -7.4296078444380E-08
(PID.TID 0000.0001) %MON obc_N_vVel_min               =  -7.4296078444380E-08
(PID.TID 0000.0001) %MON obc_N_vVel_mean              =  -7.4296078444380E-08
(PID.TID 0000.0001) %MON obc_N_vVel_sd                =   6.2803698347351E-15
(PID.TID 0000.0001) %MON obc_N_vVel_Int               =  -4.9035411773291E+00
(PID.TID 0000.0001) // =======================================================
(PID.TID 0000.0001) // End OBCS MONITOR field statistics
(PID.TID 0000.0001) // =======================================================
 cg2d: Sum(rhs),rhsMax =   3.01197447527882E+00  4.53051182866536E+02
(PID.TID 0000.0001)      cg2d_init_res =   1.58729906018616E-06
(PID.TID 0000.0001)      cg2d_iters(min,last) =      -1      68
(PID.TID 0000.0001)      cg2d_last_res =   8.56589666761758E-12
(PID.TID 0000.0001) // =======================================================
(PID.TID 0000.0001) // Begin MONITOR dynamic field statistics
(PID.TID 0000.0001) // =======================================================
(PID.TID 0000.0001) %MON time_tsnumber                =                   396
(PID.TID 0000.0001) %MON time_secondsf                =   3.9600000000000E+04
(PID.TID 0000.0001) %MON dynstat_eta_max              =   5.7965780643719E+00
(PID.TID 0000.0001) %MON dynstat_eta_min              =  -1.4176676239961E+01
(PID.TID 0000.0001) %MON dynstat_eta_mean             =  -2.5269974051646E+00
(PID.TID 0000.0001) %MON dynstat_eta_sd               =   4.9419522078556E+00
(PID.TID 0000.0001) %MON dynstat_eta_del2             =   1.9058070486143E-01
(PID.TID 0000.0001) %MON dynstat_uvel_max             =   1.8028994481618E-03
(PID.TID 0000.0001) %MON dynstat_uvel_min             =  -3.5150863892364E-03
(PID.TID 0000.0001) %MON dynstat_uvel_mean            =  -1.0942869727266E-09
(PID.TID 0000.0001) %MON dynstat_uvel_sd              =   1.3374797019369E-04
(PID.TID 0000.0001) %MON dynstat_uvel_del2            =   2.8373496766095E-07
(PID.TID 0000.0001) %MON dynstat_vvel_max             =   3.8469927024116E-03
(PID.TID 0000.0001) %MON dynstat_vvel_min             =  -1.9181313095098E-03
(PID.TID 0000.0001) %MON dynstat_vvel_mean            =  -6.9474762427952E-08
(PID.TID 0000.0001) %MON dynstat_vvel_sd              =   1.0936027198458E-04
(PID.TID 0000.0001) %MON dynstat_vvel_del2            =   3.0781681044632E-07
(PID.TID 0000.0001) %MON dynstat_wvel_max             =   1.2475194982351E-04
(PID.TID 0000.0001) %MON dynstat_wvel_min             =  -1.1793053454986E-04
(PID.TID 0000.0001) %MON dynstat_wvel_mean            =   1.1743937902996E-10
(PID.TID 0000.0001) %MON dynstat_wvel_sd              =   1.5266504387162E-05
(PID.TID 0000.0001) %MON dynstat_wvel_del2            =   7.0774948989645E-08
(PID.TID 0000.0001) %MON dynstat_theta_max            =   1.2000000000000E+00
(PID.TID 0000.0001) %MON dynstat_theta_min            =  -1.0000000000000E+00
(PID.TID 0000.0001) %MON dynstat_theta_mean           =   5.6542388494310E-01
(PID.TID 0000.0001) %MON dynstat_theta_sd             =   8.4905121043000E-01
(PID.TID 0000.0001) %MON dynstat_theta_del2           =   8.9439958104971E-07
(PID.TID 0000.0001) %MON dynstat_salt_max             =   3.4700000000000E+01
(PID.TID 0000.0001) %MON dynstat_salt_min             =   3.4000000000000E+01
(PID.TID 0000.0001) %MON dynstat_salt_mean            =   3.4498083044421E+01
(PID.TID 0000.0001) %MON dynstat_salt_sd              =   2.7015330674452E-01
(PID.TID 0000.0001) %MON dynstat_salt_del2            =   3.0915248502057E-07
(PID.TID 0000.0001) %MON advcfl_uvel_max              =   3.5150863892364E-04
(PID.TID 0000.0001) %MON advcfl_vvel_max              =   3.8469927024116E-04
(PID.TID 0000.0001) %MON advcfl_wvel_max              =   6.2375974911753E-04
(PID.TID 0000.0001) %MON advcfl_W_hf_max              =   6.2375974911753E-04
(PID.TID 0000.0001) %MON pe_b_mean                    =  -6.8280407308426E-01
(PID.TID 0000.0001) %MON ke_max                       =   4.8748233371265E-06
(PID.TID 0000.0001) %MON ke_mean                      =   1.4755765889978E-08
(PID.TID 0000.0001) %MON ke_vol                       =   4.6182896232946E+12
(PID.TID 0000.0001) // =======================================================
(PID.TID 0000.0001) // End MONITOR dynamic field statistics
(PID.TID 0000.0001) // =======================================================
(PID.TID 0000.0001) // =======================================================
(PID.TID 0000.0001) // Begin OBCS MONITOR field statistics
(PID.TID 0000.0001) // =======================================================
(PID.TID 0000.0001) %MON obc_N_vVel_max               =  -7.7052982332290E-08
(PID.TID 0000.0001) %MON obc_N_vVel_min               =  -7.7052982332291E-08
(PID.TID 0000.0001) %MON obc_N_vVel_mean              =  -7.7052982332291E-08
(PID.TID 0000.0001) %MON obc_N_vVel_sd                =  -3.4630993739202E-28
(PID.TID 0000.0001) %MON obc_N_vVel_Int               =  -5.0854968339312E+00
(PID.TID 0000.0001) // =======================================================
(PID.TID 0000.0001) // End OBCS MONITOR field statistics
(PID.TID 0000.0001) // =======================================================
 cg2d: Sum(rhs),rhsMax =   3.01197211366156E+00  4.53051171434337E+02
(PID.TID 0000.0001)      cg2d_init_res =   1.58525615367669E-06
(PID.TID 0000.0001)      cg2d_iters(min,last) =      -1      68
(PID.TID 0000.0001)      cg2d_last_res =   8.63053306418634E-12
(PID.TID 0000.0001) // =======================================================
(PID.TID 0000.0001) // Begin MONITOR dynamic field statistics
(PID.TID 0000.0001) // =======================================================
(PID.TID 0000.0001) %MON time_tsnumber                =                   397
(PID.TID 0000.0001) %MON time_secondsf                =   3.9700000000000E+04
(PID.TID 0000.0001) %MON dynstat_eta_max              =   5.7965808372160E+00
(PID.TID 0000.0001) %MON dynstat_eta_min              =  -1.4176670611591E+01
(PID.TID 0000.0001) %MON dynstat_eta_mean             =  -2.5269953600406E+00
(PID.TID 0000.0001) %MON dynstat_eta_sd               =   4.9419515498941E+00
(PID.TID 0000.0001) %MON dynstat_eta_del2             =   1.9058070677432E-01
(PID.TID 0000.0001) %MON dynstat_uvel_max             =   1.8058845905511E-03
(PID.TID 0000.0001) %MON dynstat_uvel_min             =  -3.5285573247448E-03
(PID.TID 0000.0001) %MON dynstat_uvel_mean            =  -1.1084867002740E-09
(PID.TID 0000.0001) %MON dynstat_uvel_sd              =   1.3412270096976E-04
(PID.TID 0000.0001) %MON dynstat_uvel_del2            =   2.8371476321620E-07
(PID.TID 0000.0001) %MON dynstat_vvel_max             =   3.8594526763287E-03
(PID.TID 0000.0001) %MON dynstat_vvel_min             =  -1.9207247698771E-03
(PID.TID 0000.0001) %MON dynstat_vvel_mean            =  -7.2163914288208E-08
(PID.TID 0000.0001) %MON dynstat_vvel_sd              =   1.0941573843435E-04
(PID.TID 0000.0001) %MON dynstat_vvel_del2            =   3.0761381801640E-07
(PID.TID 0000.0001) %MON dynstat_wvel_max             =   1.2410971857276E-04
(PID.TID 0000.0001) %MON dynstat_wvel_min             =  -1.1850622459990E-04
(PID.TID 0000.0001) %MON dynstat_wvel_mean            =   1.1891427076113E-10
(PID.TID 0000.0001) %MON dynstat_wvel_sd              =   1.5244201628926E-05
(PID.TID 0000.0001) %MON dynstat_wvel_del2            =   7.0652663783500E-08
(PID.TID 0000.0001) %MON dynstat_theta_max            =   1.2000000000000E+00
(PID.TID 0000.0001) %MON dynstat_theta_min            =  -1.0000000000000E+00
(PID.TID 0000.0001) %MON dynstat_theta_mean           =   5.6542366449340E-01
(PID.TID 0000.0001) %MON dynstat_theta_sd             =   8.4905115882845E-01
(PID.TID 0000.0001) %MON dynstat_theta_del2           =   8.9337415200107E-07
(PID.TID 0000.0001) %MON dynstat_salt_max             =   3.4700000000000E+01
(PID.TID 0000.0001) %MON dynstat_salt_min             =   3.4000000000000E+01
(PID.TID 0000.0001) %MON dynstat_salt_mean            =   3.4498082957063E+01
(PID.TID 0000.0001) %MON dynstat_salt_sd              =   2.7015329097869E-01
(PID.TID 0000.0001) %MON dynstat_salt_del2            =   3.0902362588257E-07
(PID.TID 0000.0001) %MON advcfl_uvel_max              =   3.5285573247448E-04
(PID.TID 0000.0001) %MON advcfl_vvel_max              =   3.8594526763287E-04
(PID.TID 0000.0001) %MON advcfl_wvel_max              =   6.2054859286382E-04
(PID.TID 0000.0001) %MON advcfl_W_hf_max              =   6.2054859286382E-04
(PID.TID 0000.0001) %MON pe_b_mean                    =  -6.8280353219371E-01
(PID.TID 0000.0001) %MON ke_max                       =   4.8717399384004E-06
(PID.TID 0000.0001) %MON ke_mean                      =   1.4811079482899E-08
(PID.TID 0000.0001) %MON ke_vol                       =   4.6182896354133E+12
(PID.TID 0000.0001) // =======================================================
(PID.TID 0000.0001) // End MONITOR dynamic field statistics
(PID.TID 0000.0001) // =======================================================
(PID.TID 0000.0001) // =======================================================
(PID.TID 0000.0001) // Begin OBCS MONITOR field statistics
(PID.TID 0000.0001) // =======================================================
(PID.TID 0000.0001) %MON obc_N_vVel_max               =  -7.9658486633035E-08
(PID.TID 0000.0001) %MON obc_N_vVel_min               =  -7.9658486633037E-08
(PID.TID 0000.0001) %MON obc_N_vVel_mean              =  -7.9658486633035E-08
(PID.TID 0000.0001) %MON obc_N_vVel_sd                =   1.4266257867676E-14
(PID.TID 0000.0001) %MON obc_N_vVel_Int               =  -5.2574601177803E+00
(PID.TID 0000.0001) // =======================================================
(PID.TID 0000.0001) // End OBCS MONITOR field statistics
(PID.TID 0000.0001) // =======================================================
 cg2d: Sum(rhs),rhsMax =   3.01196974515449E+00  4.53051160199662E+02
(PID.TID 0000.0001)      cg2d_init_res =   1.58354020455982E-06
(PID.TID 0000.0001)      cg2d_iters(min,last) =      -1      68
(PID.TID 0000.0001)      cg2d_last_res =   8.69703023706240E-12
(PID.TID 0000.0001) // =======================================================
(PID.TID 0000.0001) // Begin MONITOR dynamic field statistics
(PID.TID 0000.0001) // =======================================================
(PID.TID 0000.0001) %MON time_tsnumber                =                   398
(PID.TID 0000.0001) %MON time_secondsf                =   3.9800000000000E+04
(PID.TID 0000.0001) %MON dynstat_eta_max              =   5.7965836134412E+00
(PID.TID 0000.0001) %MON dynstat_eta_min              =  -1.4176664972403E+01
(PID.TID 0000.0001) %MON dynstat_eta_mean             =  -2.5269933102380E+00
(PID.TID 0000.0001) %MON dynstat_eta_sd               =   4.9419508908829E+00
(PID.TID 0000.0001) %MON dynstat_eta_del2             =   1.9058070870738E-01
(PID.TID 0000.0001) %MON dynstat_uvel_max             =   1.8088669617047E-03
(PID.TID 0000.0001) %MON dynstat_uvel_min             =  -3.5420527225414E-03
(PID.TID 0000.0001) %MON dynstat_uvel_mean            =  -1.1269202704005E-09
(PID.TID 0000.0001) %MON dynstat_uvel_sd              =   1.3449721775990E-04
(PID.TID 0000.0001) %MON dynstat_uvel_del2            =   2.8370002366673E-07
(PID.TID 0000.0001) %MON dynstat_vvel_max             =   3.8719152655804E-03
(PID.TID 0000.0001) %MON dynstat_vvel_min             =  -1.9232791320496E-03
(PID.TID 0000.0001) %MON dynstat_vvel_mean            =  -7.4539478665037E-08
(PID.TID 0000.0001) %MON dynstat_vvel_sd              =   1.0947026967455E-04
(PID.TID 0000.0001) %MON dynstat_vvel_del2            =   3.0742040403812E-07
(PID.TID 0000.0001) %MON dynstat_wvel_max             =   1.2346790061477E-04
(PID.TID 0000.0001) %MON dynstat_wvel_min             =  -1.1908306996487E-04
(PID.TID 0000.0001) %MON dynstat_wvel_mean            =   1.2099075882128E-10
(PID.TID 0000.0001) %MON dynstat_wvel_sd              =   1.5222868341195E-05
(PID.TID 0000.0001) %MON dynstat_wvel_del2            =   7.0541486413324E-08
(PID.TID 0000.0001) %MON dynstat_theta_max            =   1.2000000000000E+00
(PID.TID 0000.0001) %MON dynstat_theta_min            =  -1.0000000000000E+00
(PID.TID 0000.0001) %MON dynstat_theta_mean           =   5.6542344375218E-01
(PID.TID 0000.0001) %MON dynstat_theta_sd             =   8.4905110716311E-01
(PID.TID 0000.0001) %MON dynstat_theta_del2           =   8.9236511477933E-07
(PID.TID 0000.0001) %MON dynstat_salt_max             =   3.4700000000000E+01
(PID.TID 0000.0001) %MON dynstat_salt_min             =   3.4000000000000E+01
(PID.TID 0000.0001) %MON dynstat_salt_mean            =   3.4498082869594E+01
(PID.TID 0000.0001) %MON dynstat_salt_sd              =   2.7015327518062E-01
(PID.TID 0000.0001) %MON dynstat_salt_del2            =   3.0890006544206E-07
(PID.TID 0000.0001) %MON advcfl_uvel_max              =   3.5420527225414E-04
(PID.TID 0000.0001) %MON advcfl_vvel_max              =   3.8719152655804E-04
(PID.TID 0000.0001) %MON advcfl_wvel_max              =   6.1733950307383E-04
(PID.TID 0000.0001) %MON advcfl_W_hf_max              =   6.1733950307383E-04
(PID.TID 0000.0001) %MON pe_b_mean                    =  -6.8280299016419E-01
(PID.TID 0000.0001) %MON ke_max                       =   4.8685955077009E-06
(PID.TID 0000.0001) %MON ke_mean                      =   1.4866403305381E-08
(PID.TID 0000.0001) %MON ke_vol                       =   4.6182896475614E+12
(PID.TID 0000.0001) // =======================================================
(PID.TID 0000.0001) // End MONITOR dynamic field statistics
(PID.TID 0000.0001) // =======================================================
(PID.TID 0000.0001) // =======================================================
(PID.TID 0000.0001) // Begin OBCS MONITOR field statistics
(PID.TID 0000.0001) // =======================================================
(PID.TID 0000.0001) %MON obc_N_vVel_max               =  -8.2029959570514E-08
(PID.TID 0000.0001) %MON obc_N_vVel_min               =  -8.2029959570516E-08
(PID.TID 0000.0001) %MON obc_N_vVel_mean              =  -8.2029959570516E-08
(PID.TID 0000.0001) %MON obc_N_vVel_sd                =  -4.8830490033181E-28
(PID.TID 0000.0001) %MON obc_N_vVel_Int               =  -5.4139773316541E+00
(PID.TID 0000.0001) // =======================================================
(PID.TID 0000.0001) // End OBCS MONITOR field statistics
(PID.TID 0000.0001) // =======================================================
 cg2d: Sum(rhs),rhsMax =   3.01196737003827E+00  4.53051149180096E+02
(PID.TID 0000.0001)      cg2d_init_res =   1.58201059040044E-06
(PID.TID 0000.0001)      cg2d_iters(min,last) =      -1      68
(PID.TID 0000.0001)      cg2d_last_res =   8.76495244622944E-12
(PID.TID 0000.0001) // =======================================================
(PID.TID 0000.0001) // Begin MONITOR dynamic field statistics
(PID.TID 0000.0001) // =======================================================
(PID.TID 0000.0001) %MON time_tsnumber                =                   399
(PID.TID 0000.0001) %MON time_secondsf                =   3.9900000000000E+04
(PID.TID 0000.0001) %MON dynstat_eta_max              =   5.7965863922781E+00
(PID.TID 0000.0001) %MON dynstat_eta_min              =  -1.4176659323271E+01
(PID.TID 0000.0001) %MON dynstat_eta_mean             =  -2.5269912560904E+00
(PID.TID 0000.0001) %MON dynstat_eta_sd               =   4.9419502309856E+00
(PID.TID 0000.0001) %MON dynstat_eta_del2             =   1.9058071066071E-01
(PID.TID 0000.0001) %MON dynstat_uvel_max             =   1.8118467205284E-03
(PID.TID 0000.0001) %MON dynstat_uvel_min             =  -3.5555727273824E-03
(PID.TID 0000.0001) %MON dynstat_uvel_mean            =  -1.1491184373376E-09
(PID.TID 0000.0001) %MON dynstat_uvel_sd              =   1.3487150655321E-04
(PID.TID 0000.0001) %MON dynstat_uvel_del2            =   2.8369069967338E-07
(PID.TID 0000.0001) %MON dynstat_vvel_max             =   3.8843805828648E-03
(PID.TID 0000.0001) %MON dynstat_vvel_min             =  -1.9257942221094E-03
(PID.TID 0000.0001) %MON dynstat_vvel_mean            =  -7.6528698803575E-08
(PID.TID 0000.0001) %MON dynstat_vvel_sd              =   1.0952359533808E-04
(PID.TID 0000.0001) %MON dynstat_vvel_del2            =   3.0723215673233E-07
(PID.TID 0000.0001) %MON dynstat_wvel_max             =   1.2282651804551E-04
(PID.TID 0000.0001) %MON dynstat_wvel_min             =  -1.1966106930370E-04
(PID.TID 0000.0001) %MON dynstat_wvel_mean            =   1.2359225335208E-10
(PID.TID 0000.0001) %MON dynstat_wvel_sd              =   1.5201918572272E-05
(PID.TID 0000.0001) %MON dynstat_wvel_del2            =   7.0432880216545E-08
(PID.TID 0000.0001) %MON dynstat_theta_max            =   1.2000000000000E+00
(PID.TID 0000.0001) %MON dynstat_theta_min            =  -1.0000000000000E+00
(PID.TID 0000.0001) %MON dynstat_theta_mean           =   5.6542322271842E-01
(PID.TID 0000.0001) %MON dynstat_theta_sd             =   8.4905105543806E-01
(PID.TID 0000.0001) %MON dynstat_theta_del2           =   8.9137731763209E-07
(PID.TID 0000.0001) %MON dynstat_salt_max             =   3.4700000000000E+01
(PID.TID 0000.0001) %MON dynstat_salt_min             =   3.4000000000000E+01
(PID.TID 0000.0001) %MON dynstat_salt_mean            =   3.4498082782013E+01
(PID.TID 0000.0001) %MON dynstat_salt_sd              =   2.7015325935163E-01
(PID.TID 0000.0001) %MON dynstat_salt_del2            =   3.0878321414247E-07
(PID.TID 0000.0001) %MON advcfl_uvel_max              =   3.5555727273824E-04
(PID.TID 0000.0001) %MON advcfl_vvel_max              =   3.8843805828648E-04
(PID.TID 0000.0001) %MON advcfl_wvel_max              =   6.1413259022753E-04
(PID.TID 0000.0001) %MON advcfl_W_hf_max              =   6.1413259022753E-04
(PID.TID 0000.0001) %MON pe_b_mean                    =  -6.8280244707823E-01
(PID.TID 0000.0001) %MON ke_max                       =   4.8653905168333E-06
(PID.TID 0000.0001) %MON ke_mean                      =   1.4921705496059E-08
(PID.TID 0000.0001) %MON ke_vol                       =   4.6182896597372E+12
(PID.TID 0000.0001) // =======================================================
(PID.TID 0000.0001) // End MONITOR dynamic field statistics
(PID.TID 0000.0001) // =======================================================
(PID.TID 0000.0001) // =======================================================
(PID.TID 0000.0001) // Begin OBCS MONITOR field statistics
(PID.TID 0000.0001) // =======================================================
(PID.TID 0000.0001) %MON obc_N_vVel_max               =  -8.4093688493521E-08
(PID.TID 0000.0001) %MON obc_N_vVel_min               =  -8.4093688493523E-08
(PID.TID 0000.0001) %MON obc_N_vVel_mean              =  -8.4093688493521E-08
(PID.TID 0000.0001) %MON obc_N_vVel_sd                =   1.8439063158150E-14
(PID.TID 0000.0001) %MON obc_N_vVel_Int               =  -5.5501834405724E+00
(PID.TID 0000.0001) // =======================================================
(PID.TID 0000.0001) // End OBCS MONITOR field statistics
(PID.TID 0000.0001) // =======================================================
 cg2d: Sum(rhs),rhsMax =   3.01196498870791E+00  4.53051138388689E+02
(PID.TID 0000.0001)      cg2d_init_res =   1.58051668995372E-06
(PID.TID 0000.0001)      cg2d_iters(min,last) =      -1      68
(PID.TID 0000.0001)      cg2d_last_res =   8.83504128803630E-12
(PID.TID 0000.0001) // =======================================================
(PID.TID 0000.0001) // Begin MONITOR dynamic field statistics
(PID.TID 0000.0001) // =======================================================
(PID.TID 0000.0001) %MON time_tsnumber                =                   400
(PID.TID 0000.0001) %MON time_secondsf                =   4.0000000000000E+04
(PID.TID 0000.0001) %MON dynstat_eta_max              =   5.7965891728565E+00
(PID.TID 0000.0001) %MON dynstat_eta_min              =  -1.4176653665188E+01
(PID.TID 0000.0001) %MON dynstat_eta_mean             =  -2.5269891980018E+00
(PID.TID 0000.0001) %MON dynstat_eta_sd               =   4.9419495703915E+00
(PID.TID 0000.0001) %MON dynstat_eta_del2             =   1.9058071263476E-01
(PID.TID 0000.0001) %MON dynstat_uvel_max             =   1.8148240254519E-03
(PID.TID 0000.0001) %MON dynstat_uvel_min             =  -3.5691174830514E-03
(PID.TID 0000.0001) %MON dynstat_uvel_mean            =  -1.1744961804374E-09
(PID.TID 0000.0001) %MON dynstat_uvel_sd              =   1.3524555323997E-04
(PID.TID 0000.0001) %MON dynstat_uvel_del2            =   2.8368674175545E-07
(PID.TID 0000.0001) %MON dynstat_vvel_max             =   3.8968487372475E-03
(PID.TID 0000.0001) %MON dynstat_vvel_min             =  -1.9282698758385E-03
(PID.TID 0000.0001) %MON dynstat_vvel_mean            =  -7.8072784535384E-08
(PID.TID 0000.0001) %MON dynstat_vvel_sd              =   1.0957543763102E-04
(PID.TID 0000.0001) %MON dynstat_vvel_del2            =   3.0704464367374E-07
(PID.TID 0000.0001) %MON dynstat_wvel_max             =   1.2218559301093E-04
(PID.TID 0000.0001) %MON dynstat_wvel_min             =  -1.2024022114661E-04
(PID.TID 0000.0001) %MON dynstat_wvel_mean            =   1.2662574842027E-10
(PID.TID 0000.0001) %MON dynstat_wvel_sd              =   1.5180742828477E-05
(PID.TID 0000.0001) %MON dynstat_wvel_del2            =   7.0318176309923E-08
(PID.TID 0000.0001) %MON dynstat_theta_max            =   1.2000000000000E+00
(PID.TID 0000.0001) %MON dynstat_theta_min            =  -1.0000000000000E+00
(PID.TID 0000.0001) %MON dynstat_theta_mean           =   5.6542300139141E-01
(PID.TID 0000.0001) %MON dynstat_theta_sd             =   8.4905100362895E-01
(PID.TID 0000.0001) %MON dynstat_theta_del2           =   8.9041559738019E-07
(PID.TID 0000.0001) %MON dynstat_salt_max             =   3.4700000000000E+01
(PID.TID 0000.0001) %MON dynstat_salt_min             =   3.4000000000000E+01
(PID.TID 0000.0001) %MON dynstat_salt_mean            =   3.4498082694320E+01
(PID.TID 0000.0001) %MON dynstat_salt_sd              =   2.7015324348374E-01
(PID.TID 0000.0001) %MON dynstat_salt_del2            =   3.0867446761258E-07
(PID.TID 0000.0001) %MON advcfl_uvel_max              =   3.5691174830514E-04
(PID.TID 0000.0001) %MON advcfl_vvel_max              =   3.8968487372475E-04
(PID.TID 0000.0001) %MON advcfl_wvel_max              =   6.1092796505466E-04
(PID.TID 0000.0001) %MON advcfl_W_hf_max              =   6.1092796505466E-04
(PID.TID 0000.0001) %MON pe_b_mean                    =  -6.8280190303136E-01
(PID.TID 0000.0001) %MON ke_max                       =   4.8621254251324E-06
(PID.TID 0000.0001) %MON ke_mean                      =   1.4976953293292E-08
(PID.TID 0000.0001) %MON ke_vol                       =   4.6182896719388E+12
(PID.TID 0000.0001) // =======================================================
(PID.TID 0000.0001) // End MONITOR dynamic field statistics
(PID.TID 0000.0001) // =======================================================
(PID.TID 0000.0001) // =======================================================
(PID.TID 0000.0001) // Begin OBCS MONITOR field statistics
(PID.TID 0000.0001) // =======================================================
(PID.TID 0000.0001) %MON obc_N_vVel_max               =  -8.5787384649905E-08
(PID.TID 0000.0001) %MON obc_N_vVel_min               =  -8.5787384649907E-08
(PID.TID 0000.0001) %MON obc_N_vVel_mean              =  -8.5787384649905E-08
(PID.TID 0000.0001) %MON obc_N_vVel_sd                =   2.1463801355982E-14
(PID.TID 0000.0001) %MON obc_N_vVel_Int               =  -5.6619673868937E+00
(PID.TID 0000.0001) // =======================================================
(PID.TID 0000.0001) // End OBCS MONITOR field statistics
(PID.TID 0000.0001) // =======================================================
 cg2d: Sum(rhs),rhsMax =   3.01196260165704E+00  4.53051127833789E+02
(PID.TID 0000.0001)      cg2d_init_res =   1.57889193554944E-06
(PID.TID 0000.0001)      cg2d_iters(min,last) =      -1      68
(PID.TID 0000.0001)      cg2d_last_res =   8.90697245865156E-12
(PID.TID 0000.0001) // =======================================================
(PID.TID 0000.0001) // Begin MONITOR dynamic field statistics
(PID.TID 0000.0001) // =======================================================
(PID.TID 0000.0001) %MON time_tsnumber                =                   401
(PID.TID 0000.0001) %MON time_secondsf                =   4.0100000000000E+04
(PID.TID 0000.0001) %MON dynstat_eta_max              =   5.7965919542653E+00
(PID.TID 0000.0001) %MON dynstat_eta_min              =  -1.4176647999262E+01
(PID.TID 0000.0001) %MON dynstat_eta_mean             =  -2.5269871364332E+00
(PID.TID 0000.0001) %MON dynstat_eta_sd               =   4.9419489092877E+00
(PID.TID 0000.0001) %MON dynstat_eta_del2             =   1.9058071462974E-01
(PID.TID 0000.0001) %MON dynstat_uvel_max             =   1.8177990329757E-03
(PID.TID 0000.0001) %MON dynstat_uvel_min             =  -3.5826871323472E-03
(PID.TID 0000.0001) %MON dynstat_uvel_mean            =  -1.2023729798132E-09
(PID.TID 0000.0001) %MON dynstat_uvel_sd              =   1.3561934361896E-04
(PID.TID 0000.0001) %MON dynstat_uvel_del2            =   2.8368810042051E-07
(PID.TID 0000.0001) %MON dynstat_vvel_max             =   3.9093198345210E-03
(PID.TID 0000.0001) %MON dynstat_vvel_min             =  -1.9307059399427E-03
(PID.TID 0000.0001) %MON dynstat_vvel_mean            =  -7.9128644888458E-08
(PID.TID 0000.0001) %MON dynstat_vvel_sd              =   1.0962553538147E-04
(PID.TID 0000.0001) %MON dynstat_vvel_del2            =   3.0685398987870E-07
(PID.TID 0000.0001) %MON dynstat_wvel_max             =   1.2154514770403E-04
(PID.TID 0000.0001) %MON dynstat_wvel_min             =  -1.2082052399397E-04
(PID.TID 0000.0001) %MON dynstat_wvel_mean            =   1.2998611863693E-10
(PID.TID 0000.0001) %MON dynstat_wvel_sd              =   1.5158785463745E-05
(PID.TID 0000.0001) %MON dynstat_wvel_del2            =   7.0189725568462E-08
(PID.TID 0000.0001) %MON dynstat_theta_max            =   1.2000000000000E+00
(PID.TID 0000.0001) %MON dynstat_theta_min            =  -1.0000000000000E+00
(PID.TID 0000.0001) %MON dynstat_theta_mean           =   5.6542277977093E-01
(PID.TID 0000.0001) %MON dynstat_theta_sd             =   8.4905095171974E-01
(PID.TID 0000.0001) %MON dynstat_theta_del2           =   8.8948401565824E-07
(PID.TID 0000.0001) %MON dynstat_salt_max             =   3.4700000000000E+01
(PID.TID 0000.0001) %MON dynstat_salt_min             =   3.4000000000000E+01
(PID.TID 0000.0001) %MON dynstat_salt_mean            =   3.4498082606515E+01
(PID.TID 0000.0001) %MON dynstat_salt_sd              =   2.7015322757200E-01
(PID.TID 0000.0001) %MON dynstat_salt_del2            =   3.0857501481165E-07
(PID.TID 0000.0001) %MON advcfl_uvel_max              =   3.5826871323472E-04
(PID.TID 0000.0001) %MON advcfl_vvel_max              =   3.9093198345210E-04
(PID.TID 0000.0001) %MON advcfl_wvel_max              =   6.0772573852015E-04
(PID.TID 0000.0001) %MON advcfl_W_hf_max              =   6.0772573852015E-04
(PID.TID 0000.0001) %MON pe_b_mean                    =  -6.8280135812752E-01
(PID.TID 0000.0001) %MON ke_max                       =   4.8588006776260E-06
(PID.TID 0000.0001) %MON ke_mean                      =   1.5032115674422E-08
(PID.TID 0000.0001) %MON ke_vol                       =   4.6182896841639E+12
(PID.TID 0000.0001) // =======================================================
(PID.TID 0000.0001) // End MONITOR dynamic field statistics
(PID.TID 0000.0001) // =======================================================
(PID.TID 0000.0001) // =======================================================
(PID.TID 0000.0001) // Begin OBCS MONITOR field statistics
(PID.TID 0000.0001) // =======================================================
(PID.TID 0000.0001) %MON obc_N_vVel_max               =  -8.7062139102293E-08
(PID.TID 0000.0001) %MON obc_N_vVel_min               =  -8.7062139102295E-08
(PID.TID 0000.0001) %MON obc_N_vVel_mean              =  -8.7062139102295E-08
(PID.TID 0000.0001) %MON obc_N_vVel_sd                =  -4.1494083614625E-28
(PID.TID 0000.0001) %MON obc_N_vVel_Int               =  -5.7461011807514E+00
(PID.TID 0000.0001) // =======================================================
(PID.TID 0000.0001) // End OBCS MONITOR field statistics
(PID.TID 0000.0001) // =======================================================
 cg2d: Sum(rhs),rhsMax =   3.01196020945422E+00  4.53051117519004E+02
(PID.TID 0000.0001)      cg2d_init_res =   1.57698974412702E-06
(PID.TID 0000.0001)      cg2d_iters(min,last) =      -1      68
(PID.TID 0000.0001)      cg2d_last_res =   8.98459223138105E-12
(PID.TID 0000.0001) // =======================================================
(PID.TID 0000.0001) // Begin MONITOR dynamic field statistics
(PID.TID 0000.0001) // =======================================================
(PID.TID 0000.0001) %MON time_tsnumber                =                   402
(PID.TID 0000.0001) %MON time_secondsf                =   4.0200000000000E+04
(PID.TID 0000.0001) %MON dynstat_eta_max              =   5.7965947355415E+00
(PID.TID 0000.0001) %MON dynstat_eta_min              =  -1.4176642326664E+01
(PID.TID 0000.0001) %MON dynstat_eta_mean             =  -2.5269850718815E+00
(PID.TID 0000.0001) %MON dynstat_eta_sd               =   4.9419482478586E+00
(PID.TID 0000.0001) %MON dynstat_eta_del2             =   1.9058071664593E-01
(PID.TID 0000.0001) %MON dynstat_uvel_max             =   1.8207718977248E-03
(PID.TID 0000.0001) %MON dynstat_uvel_min             =  -3.5962818171678E-03
(PID.TID 0000.0001) %MON dynstat_uvel_mean            =  -1.2319932253460E-09
(PID.TID 0000.0001) %MON dynstat_uvel_sd              =   1.3599286342119E-04
(PID.TID 0000.0001) %MON dynstat_uvel_del2            =   2.8369472652424E-07
(PID.TID 0000.0001) %MON dynstat_vvel_max             =   3.9217939774068E-03
(PID.TID 0000.0001) %MON dynstat_vvel_min             =  -1.9331022728526E-03
(PID.TID 0000.0001) %MON dynstat_vvel_mean            =  -7.9670051052456E-08
(PID.TID 0000.0001) %MON dynstat_vvel_sd              =   1.0967366566199E-04
(PID.TID 0000.0001) %MON dynstat_vvel_del2            =   3.0665738025149E-07
(PID.TID 0000.0001) %MON dynstat_wvel_max             =   1.2090520445547E-04
(PID.TID 0000.0001) %MON dynstat_wvel_min             =  -1.2140197607891E-04
(PID.TID 0000.0001) %MON dynstat_wvel_mean            =   1.3355989781396E-10
(PID.TID 0000.0001) %MON dynstat_wvel_sd              =   1.5135613266547E-05
(PID.TID 0000.0001) %MON dynstat_wvel_del2            =   7.0041895788407E-08
(PID.TID 0000.0001) %MON dynstat_theta_max            =   1.2000000000000E+00
(PID.TID 0000.0001) %MON dynstat_theta_min            =  -1.0000000000000E+00
(PID.TID 0000.0001) %MON dynstat_theta_mean           =   5.6542255785676E-01
(PID.TID 0000.0001) %MON dynstat_theta_sd             =   8.4905089966534E-01
(PID.TID 0000.0001) %MON dynstat_theta_del2           =   8.8858532716214E-07
(PID.TID 0000.0001) %MON dynstat_salt_max             =   3.4700000000000E+01
(PID.TID 0000.0001) %MON dynstat_salt_min             =   3.4000000000000E+01
(PID.TID 0000.0001) %MON dynstat_salt_mean            =   3.4498082518598E+01
(PID.TID 0000.0001) %MON dynstat_salt_sd              =   2.7015321160194E-01
(PID.TID 0000.0001) %MON dynstat_salt_del2            =   3.0848564674229E-07
(PID.TID 0000.0001) %MON advcfl_uvel_max              =   3.5962818171678E-04
(PID.TID 0000.0001) %MON advcfl_vvel_max              =   3.9217939774068E-04
(PID.TID 0000.0001) %MON advcfl_wvel_max              =   6.0700988039453E-04
(PID.TID 0000.0001) %MON advcfl_W_hf_max              =   6.0700988039453E-04
(PID.TID 0000.0001) %MON pe_b_mean                    =  -6.8280081247493E-01
(PID.TID 0000.0001) %MON ke_max                       =   4.8554167054857E-06
(PID.TID 0000.0001) %MON ke_mean                      =   1.5087165739217E-08
(PID.TID 0000.0001) %MON ke_vol                       =   4.6182896964096E+12
(PID.TID 0000.0001) // =======================================================
(PID.TID 0000.0001) // End MONITOR dynamic field statistics
(PID.TID 0000.0001) // =======================================================
(PID.TID 0000.0001) // =======================================================
(PID.TID 0000.0001) // Begin OBCS MONITOR field statistics
(PID.TID 0000.0001) // =======================================================
(PID.TID 0000.0001) %MON obc_N_vVel_max               =  -8.7883802234512E-08
(PID.TID 0000.0001) %MON obc_N_vVel_min               =  -8.7883802234515E-08
(PID.TID 0000.0001) %MON obc_N_vVel_mean              =  -8.7883802234515E-08
(PID.TID 0000.0001) %MON obc_N_vVel_sd                =  -5.3800313736073E-28
(PID.TID 0000.0001) %MON obc_N_vVel_Int               =  -5.8003309474780E+00
(PID.TID 0000.0001) // =======================================================
(PID.TID 0000.0001) // End OBCS MONITOR field statistics
(PID.TID 0000.0001) // =======================================================
 cg2d: Sum(rhs),rhsMax =   3.01195781271744E+00  4.53051107443256E+02
(PID.TID 0000.0001)      cg2d_init_res =   1.57469771188008E-06
(PID.TID 0000.0001)      cg2d_iters(min,last) =      -1      68
(PID.TID 0000.0001)      cg2d_last_res =   9.07395339090114E-12
(PID.TID 0000.0001) // =======================================================
(PID.TID 0000.0001) // Begin MONITOR dynamic field statistics
(PID.TID 0000.0001) // =======================================================
(PID.TID 0000.0001) %MON time_tsnumber                =                   403
(PID.TID 0000.0001) %MON time_secondsf                =   4.0300000000000E+04
(PID.TID 0000.0001) %MON dynstat_eta_max              =   5.7965975157150E+00
(PID.TID 0000.0001) %MON dynstat_eta_min              =  -1.4176636648582E+01
(PID.TID 0000.0001) %MON dynstat_eta_mean             =  -2.5269830048593E+00
(PID.TID 0000.0001) %MON dynstat_eta_sd               =   4.9419475862809E+00
(PID.TID 0000.0001) %MON dynstat_eta_del2             =   1.9058071868342E-01
(PID.TID 0000.0001) %MON dynstat_uvel_max             =   1.8237427727605E-03
(PID.TID 0000.0001) %MON dynstat_uvel_min             =  -3.6099016783799E-03
(PID.TID 0000.0001) %MON dynstat_uvel_mean            =  -1.2625405933785E-09
(PID.TID 0000.0001) %MON dynstat_uvel_sd              =   1.3636609832831E-04
(PID.TID 0000.0001) %MON dynstat_uvel_del2            =   2.8370657160219E-07
(PID.TID 0000.0001) %MON dynstat_vvel_max             =   3.9342712650741E-03
(PID.TID 0000.0001) %MON dynstat_vvel_min             =  -1.9354587447200E-03
(PID.TID 0000.0001) %MON dynstat_vvel_mean            =  -7.9688241932005E-08
(PID.TID 0000.0001) %MON dynstat_vvel_sd              =   1.0971966007537E-04
(PID.TID 0000.0001) %MON dynstat_vvel_del2            =   3.0645341511525E-07
(PID.TID 0000.0001) %MON dynstat_wvel_max             =   1.2026578569891E-04
(PID.TID 0000.0001) %MON dynstat_wvel_min             =  -1.2198457565900E-04
(PID.TID 0000.0001) %MON dynstat_wvel_mean            =   1.3722853484442E-10
(PID.TID 0000.0001) %MON dynstat_wvel_sd              =   1.5110965507774E-05
(PID.TID 0000.0001) %MON dynstat_wvel_del2            =   6.9871782512953E-08
(PID.TID 0000.0001) %MON dynstat_theta_max            =   1.2000000000000E+00
(PID.TID 0000.0001) %MON dynstat_theta_min            =  -1.0000000000000E+00
(PID.TID 0000.0001) %MON dynstat_theta_mean           =   5.6542233564829E-01
(PID.TID 0000.0001) %MON dynstat_theta_sd             =   8.4905084744293E-01
(PID.TID 0000.0001) %MON dynstat_theta_del2           =   8.8772044337685E-07
(PID.TID 0000.0001) %MON dynstat_salt_max             =   3.4700000000000E+01
(PID.TID 0000.0001) %MON dynstat_salt_min             =   3.4000000000000E+01
(PID.TID 0000.0001) %MON dynstat_salt_mean            =   3.4498082430568E+01
(PID.TID 0000.0001) %MON dynstat_salt_sd              =   2.7015319556638E-01
(PID.TID 0000.0001) %MON dynstat_salt_del2            =   3.0840662397630E-07
(PID.TID 0000.0001) %MON advcfl_uvel_max              =   3.6099016783799E-04
(PID.TID 0000.0001) %MON advcfl_vvel_max              =   3.9342712650741E-04
(PID.TID 0000.0001) %MON advcfl_wvel_max              =   6.0992287829502E-04
(PID.TID 0000.0001) %MON advcfl_W_hf_max              =   6.0992287829502E-04
(PID.TID 0000.0001) %MON pe_b_mean                    =  -6.8280026618115E-01
(PID.TID 0000.0001) %MON ke_max                       =   4.8519739263608E-06
(PID.TID 0000.0001) %MON ke_mean                      =   1.5142082512726E-08
(PID.TID 0000.0001) %MON ke_vol                       =   4.6182897086730E+12
(PID.TID 0000.0001) // =======================================================
(PID.TID 0000.0001) // End MONITOR dynamic field statistics
(PID.TID 0000.0001) // =======================================================
(PID.TID 0000.0001) // =======================================================
(PID.TID 0000.0001) // Begin OBCS MONITOR field statistics
(PID.TID 0000.0001) // =======================================================
(PID.TID 0000.0001) %MON obc_N_vVel_max               =  -8.8233810708638E-08
(PID.TID 0000.0001) %MON obc_N_vVel_min               =  -8.8233810708638E-08
(PID.TID 0000.0001) %MON obc_N_vVel_mean              =  -8.8233810708638E-08
(PID.TID 0000.0001) %MON obc_N_vVel_sd                =   1.9580255359351E-14
(PID.TID 0000.0001) %MON obc_N_vVel_Int               =  -5.8234315067701E+00
(PID.TID 0000.0001) // =======================================================
(PID.TID 0000.0001) // End OBCS MONITOR field statistics
(PID.TID 0000.0001) // =======================================================
 cg2d: Sum(rhs),rhsMax =   3.01195541210442E+00  4.53051097600931E+02
(PID.TID 0000.0001)      cg2d_init_res =   1.57197216085558E-06
(PID.TID 0000.0001)      cg2d_iters(min,last) =      -1      68
(PID.TID 0000.0001)      cg2d_last_res =   9.17604293386894E-12
(PID.TID 0000.0001) // =======================================================
(PID.TID 0000.0001) // Begin MONITOR dynamic field statistics
(PID.TID 0000.0001) // =======================================================
(PID.TID 0000.0001) %MON time_tsnumber                =                   404
(PID.TID 0000.0001) %MON time_secondsf                =   4.0400000000000E+04
(PID.TID 0000.0001) %MON dynstat_eta_max              =   5.7966002938400E+00
(PID.TID 0000.0001) %MON dynstat_eta_min              =  -1.4176630966152E+01
(PID.TID 0000.0001) %MON dynstat_eta_mean             =  -2.5269809358870E+00
(PID.TID 0000.0001) %MON dynstat_eta_sd               =   4.9419469247163E+00
(PID.TID 0000.0001) %MON dynstat_eta_del2             =   1.9058072074212E-01
(PID.TID 0000.0001) %MON dynstat_uvel_max             =   1.8267118091799E-03
(PID.TID 0000.0001) %MON dynstat_uvel_min             =  -3.6235468560610E-03
(PID.TID 0000.0001) %MON dynstat_uvel_mean            =  -1.2931611474223E-09
(PID.TID 0000.0001) %MON dynstat_uvel_sd              =   1.3673903401041E-04
(PID.TID 0000.0001) %MON dynstat_uvel_del2            =   2.8372358817824E-07
(PID.TID 0000.0001) %MON dynstat_vvel_max             =   3.9467517931870E-03
(PID.TID 0000.0001) %MON dynstat_vvel_min             =  -1.9377752368790E-03
(PID.TID 0000.0001) %MON dynstat_vvel_mean            =  -7.9191919571640E-08
(PID.TID 0000.0001) %MON dynstat_vvel_sd              =   1.0976341396581E-04
(PID.TID 0000.0001) %MON dynstat_vvel_del2            =   3.0624227850436E-07
(PID.TID 0000.0001) %MON dynstat_wvel_max             =   1.1962691398114E-04
(PID.TID 0000.0001) %MON dynstat_wvel_min             =  -1.2256832086653E-04
(PID.TID 0000.0001) %MON dynstat_wvel_mean            =   1.4087276966613E-10
(PID.TID 0000.0001) %MON dynstat_wvel_sd              =   1.5084779744660E-05
(PID.TID 0000.0001) %MON dynstat_wvel_del2            =   6.9679556690168E-08
(PID.TID 0000.0001) %MON dynstat_theta_max            =   1.2000000000000E+00
(PID.TID 0000.0001) %MON dynstat_theta_min            =  -1.0000000000000E+00
(PID.TID 0000.0001) %MON dynstat_theta_mean           =   5.6542211314570E-01
(PID.TID 0000.0001) %MON dynstat_theta_sd             =   8.4905079506125E-01
(PID.TID 0000.0001) %MON dynstat_theta_del2           =   8.8688861940542E-07
(PID.TID 0000.0001) %MON dynstat_salt_max             =   3.4700000000000E+01
(PID.TID 0000.0001) %MON dynstat_salt_min             =   3.4000000000000E+01
(PID.TID 0000.0001) %MON dynstat_salt_mean            =   3.4498082342425E+01
(PID.TID 0000.0001) %MON dynstat_salt_sd              =   2.7015317946793E-01
(PID.TID 0000.0001) %MON dynstat_salt_del2            =   3.0833772990161E-07
(PID.TID 0000.0001) %MON advcfl_uvel_max              =   3.6235468560610E-04
(PID.TID 0000.0001) %MON advcfl_vvel_max              =   3.9467517931870E-04
(PID.TID 0000.0001) %MON advcfl_wvel_max              =   6.1284160433264E-04
(PID.TID 0000.0001) %MON advcfl_W_hf_max              =   6.1284160433264E-04
(PID.TID 0000.0001) %MON pe_b_mean                    =  -6.8279971935243E-01
(PID.TID 0000.0001) %MON ke_max                       =   4.8484727450428E-06
(PID.TID 0000.0001) %MON ke_mean                      =   1.5196851978420E-08
(PID.TID 0000.0001) %MON ke_vol                       =   4.6182897209511E+12
(PID.TID 0000.0001) // =======================================================
(PID.TID 0000.0001) // End MONITOR dynamic field statistics
(PID.TID 0000.0001) // =======================================================
(PID.TID 0000.0001) // =======================================================
(PID.TID 0000.0001) // Begin OBCS MONITOR field statistics
(PID.TID 0000.0001) // =======================================================
(PID.TID 0000.0001) %MON obc_N_vVel_max               =  -8.8109558586488E-08
(PID.TID 0000.0001) %MON obc_N_vVel_min               =  -8.8109558586491E-08
(PID.TID 0000.0001) %MON obc_N_vVel_mean              =  -8.8109558586491E-08
(PID.TID 0000.0001) %MON obc_N_vVel_sd                =  -3.4236563286592E-28
(PID.TID 0000.0001) %MON obc_N_vVel_Int               =  -5.8152308667084E+00
(PID.TID 0000.0001) // =======================================================
(PID.TID 0000.0001) // End OBCS MONITOR field statistics
(PID.TID 0000.0001) // =======================================================
 cg2d: Sum(rhs),rhsMax =   3.01195300828535E+00  4.53051087982144E+02
(PID.TID 0000.0001)      cg2d_init_res =   1.56885969350739E-06
(PID.TID 0000.0001)      cg2d_iters(min,last) =      -1      68
(PID.TID 0000.0001)      cg2d_last_res =   9.28986442170642E-12
(PID.TID 0000.0001) // =======================================================
(PID.TID 0000.0001) // Begin MONITOR dynamic field statistics
(PID.TID 0000.0001) // =======================================================
(PID.TID 0000.0001) %MON time_tsnumber                =                   405
(PID.TID 0000.0001) %MON time_secondsf                =   4.0500000000000E+04
(PID.TID 0000.0001) %MON dynstat_eta_max              =   5.7966030690062E+00
(PID.TID 0000.0001) %MON dynstat_eta_min              =  -1.4176625280419E+01
(PID.TID 0000.0001) %MON dynstat_eta_mean             =  -2.5269788654718E+00
(PID.TID 0000.0001) %MON dynstat_eta_sd               =   4.9419462633048E+00
(PID.TID 0000.0001) %MON dynstat_eta_del2             =   1.9058072282164E-01
(PID.TID 0000.0001) %MON dynstat_uvel_max             =   1.8296791561010E-03
(PID.TID 0000.0001) %MON dynstat_uvel_min             =  -3.6372174895458E-03
(PID.TID 0000.0001) %MON dynstat_uvel_mean            =  -1.3230020631638E-09
(PID.TID 0000.0001) %MON dynstat_uvel_sd              =   1.3711165615221E-04
(PID.TID 0000.0001) %MON dynstat_uvel_del2            =   2.8374573000003E-07
(PID.TID 0000.0001) %MON dynstat_vvel_max             =   3.9592356536224E-03
(PID.TID 0000.0001) %MON dynstat_vvel_min             =  -1.9400516417605E-03
(PID.TID 0000.0001) %MON dynstat_vvel_mean            =  -7.8206622094713E-08
(PID.TID 0000.0001) %MON dynstat_vvel_sd              =   1.0980488763528E-04
(PID.TID 0000.0001) %MON dynstat_vvel_del2            =   3.0602569793337E-07
(PID.TID 0000.0001) %MON dynstat_wvel_max             =   1.1898861207326E-04
(PID.TID 0000.0001) %MON dynstat_wvel_min             =  -1.2315320988872E-04
(PID.TID 0000.0001) %MON dynstat_wvel_mean            =   1.4437651104536E-10
(PID.TID 0000.0001) %MON dynstat_wvel_sd              =   1.5057190090463E-05
(PID.TID 0000.0001) %MON dynstat_wvel_del2            =   6.9468410971419E-08
(PID.TID 0000.0001) %MON dynstat_theta_max            =   1.2000000000000E+00
(PID.TID 0000.0001) %MON dynstat_theta_min            =  -1.0000000000000E+00
(PID.TID 0000.0001) %MON dynstat_theta_mean           =   5.6542189034950E-01
(PID.TID 0000.0001) %MON dynstat_theta_sd             =   8.4905074254566E-01
(PID.TID 0000.0001) %MON dynstat_theta_del2           =   8.8608760369955E-07
(PID.TID 0000.0001) %MON dynstat_salt_max             =   3.4700000000000E+01
(PID.TID 0000.0001) %MON dynstat_salt_min             =   3.4000000000000E+01
(PID.TID 0000.0001) %MON dynstat_salt_mean            =   3.4498082254170E+01
(PID.TID 0000.0001) %MON dynstat_salt_sd              =   2.7015316331494E-01
(PID.TID 0000.0001) %MON dynstat_salt_del2            =   3.0827830602835E-07
(PID.TID 0000.0001) %MON advcfl_uvel_max              =   3.6372174895458E-04
(PID.TID 0000.0001) %MON advcfl_vvel_max              =   3.9592356536224E-04
(PID.TID 0000.0001) %MON advcfl_wvel_max              =   6.1576604944360E-04
(PID.TID 0000.0001) %MON advcfl_W_hf_max              =   6.1576604944360E-04
(PID.TID 0000.0001) %MON pe_b_mean                    =  -6.8279917208874E-01
(PID.TID 0000.0001) %MON ke_max                       =   4.8449135528519E-06
(PID.TID 0000.0001) %MON ke_mean                      =   1.5251467231690E-08
(PID.TID 0000.0001) %MON ke_vol                       =   4.6182897332408E+12
(PID.TID 0000.0001) // =======================================================
(PID.TID 0000.0001) // End MONITOR dynamic field statistics
(PID.TID 0000.0001) // =======================================================
(PID.TID 0000.0001) // =======================================================
(PID.TID 0000.0001) // Begin OBCS MONITOR field statistics
(PID.TID 0000.0001) // =======================================================
(PID.TID 0000.0001) %MON obc_N_vVel_max               =  -8.7524165414939E-08
(PID.TID 0000.0001) %MON obc_N_vVel_min               =  -8.7524165414940E-08
(PID.TID 0000.0001) %MON obc_N_vVel_mean              =  -8.7524165414939E-08
(PID.TID 0000.0001) %MON obc_N_vVel_sd                =   9.6480872102236E-15
(PID.TID 0000.0001) %MON obc_N_vVel_Int               =  -5.7765949173860E+00
(PID.TID 0000.0001) // =======================================================
(PID.TID 0000.0001) // End OBCS MONITOR field statistics
(PID.TID 0000.0001) // =======================================================
 cg2d: Sum(rhs),rhsMax =   3.01195060192181E+00  4.53051078573027E+02
(PID.TID 0000.0001)      cg2d_init_res =   1.56544533152371E-06
(PID.TID 0000.0001)      cg2d_iters(min,last) =      -1      68
(PID.TID 0000.0001)      cg2d_last_res =   9.40605746879514E-12
(PID.TID 0000.0001) // =======================================================
(PID.TID 0000.0001) // Begin MONITOR dynamic field statistics
(PID.TID 0000.0001) // =======================================================
(PID.TID 0000.0001) %MON time_tsnumber                =                   406
(PID.TID 0000.0001) %MON time_secondsf                =   4.0600000000000E+04
(PID.TID 0000.0001) %MON dynstat_eta_max              =   5.7966058403859E+00
(PID.TID 0000.0001) %MON dynstat_eta_min              =  -1.4176619592350E+01
(PID.TID 0000.0001) %MON dynstat_eta_mean             =  -2.5269767940914E+00
(PID.TID 0000.0001) %MON dynstat_eta_sd               =   4.9419456021559E+00
(PID.TID 0000.0001) %MON dynstat_eta_del2             =   1.9058072492134E-01
(PID.TID 0000.0001) %MON dynstat_uvel_max             =   1.8326449610022E-03
(PID.TID 0000.0001) %MON dynstat_uvel_min             =  -3.6509137175438E-03
(PID.TID 0000.0001) %MON dynstat_uvel_mean            =  -1.3512684791098E-09
(PID.TID 0000.0001) %MON dynstat_uvel_sd              =   1.3748395049062E-04
(PID.TID 0000.0001) %MON dynstat_uvel_del2            =   2.8377295240960E-07
(PID.TID 0000.0001) %MON dynstat_vvel_max             =   3.9717229351948E-03
(PID.TID 0000.0001) %MON dynstat_vvel_min             =  -1.9422878626898E-03
(PID.TID 0000.0001) %MON dynstat_vvel_mean            =  -7.6773538554162E-08
(PID.TID 0000.0001) %MON dynstat_vvel_sd              =   1.0984409991027E-04
(PID.TID 0000.0001) %MON dynstat_vvel_del2            =   3.0580670604310E-07
(PID.TID 0000.0001) %MON dynstat_wvel_max             =   1.1835090264439E-04
(PID.TID 0000.0001) %MON dynstat_wvel_min             =  -1.2373924089451E-04
(PID.TID 0000.0001) %MON dynstat_wvel_mean            =   1.4763030393862E-10
(PID.TID 0000.0001) %MON dynstat_wvel_sd              =   1.5028498886576E-05
(PID.TID 0000.0001) %MON dynstat_wvel_del2            =   6.9244120081887E-08
(PID.TID 0000.0001) %MON dynstat_theta_max            =   1.2000000000000E+00
(PID.TID 0000.0001) %MON dynstat_theta_min            =  -1.0000000000000E+00
(PID.TID 0000.0001) %MON dynstat_theta_mean           =   5.6542166726058E-01
(PID.TID 0000.0001) %MON dynstat_theta_sd             =   8.4905068990674E-01
(PID.TID 0000.0001) %MON dynstat_theta_del2           =   8.8531400789701E-07
(PID.TID 0000.0001) %MON dynstat_salt_max             =   3.4700000000000E+01
(PID.TID 0000.0001) %MON dynstat_salt_min             =   3.4000000000000E+01
(PID.TID 0000.0001) %MON dynstat_salt_mean            =   3.4498082165802E+01
(PID.TID 0000.0001) %MON dynstat_salt_sd              =   2.7015314711054E-01
(PID.TID 0000.0001) %MON dynstat_salt_del2            =   3.0822740346006E-07
(PID.TID 0000.0001) %MON advcfl_uvel_max              =   3.6509137175438E-04
(PID.TID 0000.0001) %MON advcfl_vvel_max              =   3.9717229351948E-04
(PID.TID 0000.0001) %MON advcfl_wvel_max              =   6.1869620447257E-04
(PID.TID 0000.0001) %MON advcfl_W_hf_max              =   6.1869620447257E-04
(PID.TID 0000.0001) %MON pe_b_mean                    =  -6.8279862448056E-01
(PID.TID 0000.0001) %MON ke_max                       =   4.8412967309577E-06
(PID.TID 0000.0001) %MON ke_mean                      =   1.5305927793368E-08
(PID.TID 0000.0001) %MON ke_vol                       =   4.6182897455391E+12
(PID.TID 0000.0001) // =======================================================
(PID.TID 0000.0001) // End MONITOR dynamic field statistics
(PID.TID 0000.0001) // =======================================================
(PID.TID 0000.0001) // =======================================================
(PID.TID 0000.0001) // Begin OBCS MONITOR field statistics
(PID.TID 0000.0001) // =======================================================
(PID.TID 0000.0001) %MON obc_N_vVel_max               =  -8.6505704354113E-08
(PID.TID 0000.0001) %MON obc_N_vVel_min               =  -8.6505704354115E-08
(PID.TID 0000.0001) %MON obc_N_vVel_mean              =  -8.6505704354113E-08
(PID.TID 0000.0001) %MON obc_N_vVel_sd                =   6.9935238702462E-15
(PID.TID 0000.0001) %MON obc_N_vVel_Int               =  -5.7093764873715E+00
(PID.TID 0000.0001) // =======================================================
(PID.TID 0000.0001) // End OBCS MONITOR field statistics
(PID.TID 0000.0001) // =======================================================
 cg2d: Sum(rhs),rhsMax =   3.01194819363464E+00  4.53051069356212E+02
(PID.TID 0000.0001)      cg2d_init_res =   1.56185674728797E-06
(PID.TID 0000.0001)      cg2d_iters(min,last) =      -1      68
(PID.TID 0000.0001)      cg2d_last_res =   9.50549361931126E-12
(PID.TID 0000.0001) // =======================================================
(PID.TID 0000.0001) // Begin MONITOR dynamic field statistics
(PID.TID 0000.0001) // =======================================================
(PID.TID 0000.0001) %MON time_tsnumber                =                   407
(PID.TID 0000.0001) %MON time_secondsf                =   4.0700000000000E+04
(PID.TID 0000.0001) %MON dynstat_eta_max              =   5.7966086072339E+00
(PID.TID 0000.0001) %MON dynstat_eta_min              =  -1.4176613902774E+01
(PID.TID 0000.0001) %MON dynstat_eta_mean             =  -2.5269747221698E+00
(PID.TID 0000.0001) %MON dynstat_eta_sd               =   4.9419449413493E+00
(PID.TID 0000.0001) %MON dynstat_eta_del2             =   1.9058072704049E-01
(PID.TID 0000.0001) %MON dynstat_uvel_max             =   1.8356093692891E-03
(PID.TID 0000.0001) %MON dynstat_uvel_min             =  -3.6646356781569E-03
(PID.TID 0000.0001) %MON dynstat_uvel_mean            =  -1.3772547799619E-09
(PID.TID 0000.0001) %MON dynstat_uvel_sd              =   1.3785590283887E-04
(PID.TID 0000.0001) %MON dynstat_uvel_del2            =   2.8380521279096E-07
(PID.TID 0000.0001) %MON dynstat_vvel_max             =   3.9842137242421E-03
(PID.TID 0000.0001) %MON dynstat_vvel_min             =  -1.9444838129186E-03
(PID.TID 0000.0001) %MON dynstat_vvel_mean            =  -7.4947866615061E-08
(PID.TID 0000.0001) %MON dynstat_vvel_sd              =   1.0988111541152E-04
(PID.TID 0000.0001) %MON dynstat_vvel_del2            =   3.0558923954288E-07
(PID.TID 0000.0001) %MON dynstat_wvel_max             =   1.1771380860496E-04
(PID.TID 0000.0001) %MON dynstat_wvel_min             =  -1.2432641202051E-04
(PID.TID 0000.0001) %MON dynstat_wvel_mean            =   1.5053415153805E-10
(PID.TID 0000.0001) %MON dynstat_wvel_sd              =   1.4999126121008E-05
(PID.TID 0000.0001) %MON dynstat_wvel_del2            =   6.9014275830840E-08
(PID.TID 0000.0001) %MON dynstat_theta_max            =   1.2000000000000E+00
(PID.TID 0000.0001) %MON dynstat_theta_min            =  -1.0000000000000E+00
(PID.TID 0000.0001) %MON dynstat_theta_mean           =   5.6542144387922E-01
(PID.TID 0000.0001) %MON dynstat_theta_sd             =   8.4905063715648E-01
(PID.TID 0000.0001) %MON dynstat_theta_del2           =   8.8456378145281E-07
(PID.TID 0000.0001) %MON dynstat_salt_max             =   3.4700000000000E+01
(PID.TID 0000.0001) %MON dynstat_salt_min             =   3.4000000000000E+01
(PID.TID 0000.0001) %MON dynstat_salt_mean            =   3.4498082077322E+01
(PID.TID 0000.0001) %MON dynstat_salt_sd              =   2.7015313085847E-01
(PID.TID 0000.0001) %MON dynstat_salt_del2            =   3.0818385001947E-07
(PID.TID 0000.0001) %MON advcfl_uvel_max              =   3.6646356781569E-04
(PID.TID 0000.0001) %MON advcfl_vvel_max              =   3.9842137242421E-04
(PID.TID 0000.0001) %MON advcfl_wvel_max              =   6.2163206010255E-04
(PID.TID 0000.0001) %MON advcfl_W_hf_max              =   6.2163206010255E-04
(PID.TID 0000.0001) %MON pe_b_mean                    =  -6.8279807660260E-01
(PID.TID 0000.0001) %MON ke_max                       =   4.8376226511205E-06
(PID.TID 0000.0001) %MON ke_mean                      =   1.5360238225547E-08
(PID.TID 0000.0001) %MON ke_vol                       =   4.6182897578431E+12
(PID.TID 0000.0001) // =======================================================
(PID.TID 0000.0001) // End MONITOR dynamic field statistics
(PID.TID 0000.0001) // =======================================================
(PID.TID 0000.0001) // =======================================================
(PID.TID 0000.0001) // Begin OBCS MONITOR field statistics
(PID.TID 0000.0001) // =======================================================
(PID.TID 0000.0001) %MON obc_N_vVel_max               =  -8.5095978584635E-08
(PID.TID 0000.0001) %MON obc_N_vVel_min               =  -8.5095978584637E-08
(PID.TID 0000.0001) %MON obc_N_vVel_mean              =  -8.5095978584637E-08
(PID.TID 0000.0001) %MON obc_N_vVel_sd                =  -3.1238891846752E-28
(PID.TID 0000.0001) %MON obc_N_vVel_Int               =  -5.6163345865860E+00
(PID.TID 0000.0001) // =======================================================
(PID.TID 0000.0001) // End OBCS MONITOR field statistics
(PID.TID 0000.0001) // =======================================================
 cg2d: Sum(rhs),rhsMax =   3.01194578399733E+00  4.53051060311299E+02
(PID.TID 0000.0001)      cg2d_init_res =   1.55825944423481E-06
(PID.TID 0000.0001)      cg2d_iters(min,last) =      -1      68
(PID.TID 0000.0001)      cg2d_last_res =   9.57525436060206E-12
(PID.TID 0000.0001) // =======================================================
(PID.TID 0000.0001) // Begin MONITOR dynamic field statistics
(PID.TID 0000.0001) // =======================================================
(PID.TID 0000.0001) %MON time_tsnumber                =                   408
(PID.TID 0000.0001) %MON time_secondsf                =   4.0800000000000E+04
(PID.TID 0000.0001) %MON dynstat_eta_max              =   5.7966113689345E+00
(PID.TID 0000.0001) %MON dynstat_eta_min              =  -1.4176608212399E+01
(PID.TID 0000.0001) %MON dynstat_eta_mean             =  -2.5269726500743E+00
(PID.TID 0000.0001) %MON dynstat_eta_sd               =   4.9419442809355E+00
(PID.TID 0000.0001) %MON dynstat_eta_del2             =   1.9058072917854E-01
(PID.TID 0000.0001) %MON dynstat_uvel_max             =   1.8385725247185E-03
(PID.TID 0000.0001) %MON dynstat_uvel_min             =  -3.6783835091372E-03
(PID.TID 0000.0001) %MON dynstat_uvel_mean            =  -1.4003638657328E-09
(PID.TID 0000.0001) %MON dynstat_uvel_sd              =   1.3822749915608E-04
(PID.TID 0000.0001) %MON dynstat_uvel_del2            =   2.8384247088828E-07
(PID.TID 0000.0001) %MON dynstat_vvel_max             =   3.9967081042362E-03
(PID.TID 0000.0001) %MON dynstat_vvel_min             =  -1.9466394143794E-03
(PID.TID 0000.0001) %MON dynstat_vvel_mean            =  -7.2796774001347E-08
(PID.TID 0000.0001) %MON dynstat_vvel_sd              =   1.0991602753397E-04
(PID.TID 0000.0001) %MON dynstat_vvel_del2            =   3.0537762780228E-07
(PID.TID 0000.0001) %MON dynstat_wvel_max             =   1.1707735274809E-04
(PID.TID 0000.0001) %MON dynstat_wvel_min             =  -1.2491472123945E-04
(PID.TID 0000.0001) %MON dynstat_wvel_mean            =   1.5300146477395E-10
(PID.TID 0000.0001) %MON dynstat_wvel_sd              =   1.4969543265616E-05
(PID.TID 0000.0001) %MON dynstat_wvel_del2            =   6.8787293106427E-08
(PID.TID 0000.0001) %MON dynstat_theta_max            =   1.2000000000000E+00
(PID.TID 0000.0001) %MON dynstat_theta_min            =  -1.0000000000000E+00
(PID.TID 0000.0001) %MON dynstat_theta_mean           =   5.6542122020628E-01
(PID.TID 0000.0001) %MON dynstat_theta_sd             =   8.4905058428489E-01
(PID.TID 0000.0001) %MON dynstat_theta_del2           =   8.8383276596192E-07
(PID.TID 0000.0001) %MON dynstat_salt_max             =   3.4700000000000E+01
(PID.TID 0000.0001) %MON dynstat_salt_min             =   3.4000000000000E+01
(PID.TID 0000.0001) %MON dynstat_salt_mean            =   3.4498081988730E+01
(PID.TID 0000.0001) %MON dynstat_salt_sd              =   2.7015311455562E-01
(PID.TID 0000.0001) %MON dynstat_salt_del2            =   3.0814645138753E-07
(PID.TID 0000.0001) %MON advcfl_uvel_max              =   3.6783835091372E-04
(PID.TID 0000.0001) %MON advcfl_vvel_max              =   3.9967081042362E-04
(PID.TID 0000.0001) %MON advcfl_wvel_max              =   6.2457360619725E-04
(PID.TID 0000.0001) %MON advcfl_W_hf_max              =   6.2457360619725E-04
(PID.TID 0000.0001) %MON pe_b_mean                    =  -6.8279752851628E-01
(PID.TID 0000.0001) %MON ke_max                       =   4.8385061497794E-06
(PID.TID 0000.0001) %MON ke_mean                      =   1.5414406277702E-08
(PID.TID 0000.0001) %MON ke_vol                       =   4.6182897701503E+12
(PID.TID 0000.0001) // =======================================================
(PID.TID 0000.0001) // End MONITOR dynamic field statistics
(PID.TID 0000.0001) // =======================================================
(PID.TID 0000.0001) // =======================================================
(PID.TID 0000.0001) // Begin OBCS MONITOR field statistics
(PID.TID 0000.0001) // =======================================================
(PID.TID 0000.0001) %MON obc_N_vVel_max               =  -8.3348970986060E-08
(PID.TID 0000.0001) %MON obc_N_vVel_min               =  -8.3348970986061E-08
(PID.TID 0000.0001) %MON obc_N_vVel_mean              =  -8.3348970986060E-08
(PID.TID 0000.0001) %MON obc_N_vVel_sd                =   1.8799193747047E-14
(PID.TID 0000.0001) %MON obc_N_vVel_Int               =  -5.5010320850800E+00
(PID.TID 0000.0001) // =======================================================
(PID.TID 0000.0001) // End OBCS MONITOR field statistics
(PID.TID 0000.0001) // =======================================================
 cg2d: Sum(rhs),rhsMax =   3.01194337350633E+00  4.53051051415398E+02
(PID.TID 0000.0001)      cg2d_init_res =   1.55481654545437E-06
(PID.TID 0000.0001)      cg2d_iters(min,last) =      -1      68
(PID.TID 0000.0001)      cg2d_last_res =   9.61541195306012E-12
(PID.TID 0000.0001) // =======================================================
(PID.TID 0000.0001) // Begin MONITOR dynamic field statistics
(PID.TID 0000.0001) // =======================================================
(PID.TID 0000.0001) %MON time_tsnumber                =                   409
(PID.TID 0000.0001) %MON time_secondsf                =   4.0900000000000E+04
(PID.TID 0000.0001) %MON dynstat_eta_max              =   5.7966141249821E+00
(PID.TID 0000.0001) %MON dynstat_eta_min              =  -1.4176602521762E+01
(PID.TID 0000.0001) %MON dynstat_eta_mean             =  -2.5269705780939E+00
(PID.TID 0000.0001) %MON dynstat_eta_sd               =   4.9419436209339E+00
(PID.TID 0000.0001) %MON dynstat_eta_del2             =   1.9058073133494E-01
(PID.TID 0000.0001) %MON dynstat_uvel_max             =   1.8415345695377E-03
(PID.TID 0000.0001) %MON dynstat_uvel_min             =  -3.6921573477091E-03
(PID.TID 0000.0001) %MON dynstat_uvel_mean            =  -1.4201047433937E-09
(PID.TID 0000.0001) %MON dynstat_uvel_sd              =   1.3859872558324E-04
(PID.TID 0000.0001) %MON dynstat_uvel_del2            =   2.8388468915197E-07
(PID.TID 0000.0001) %MON dynstat_vvel_max             =   4.0092061568087E-03
(PID.TID 0000.0001) %MON dynstat_vvel_min             =  -1.9487545963033E-03
(PID.TID 0000.0001) %MON dynstat_vvel_mean            =  -7.0397015939583E-08
(PID.TID 0000.0001) %MON dynstat_vvel_sd              =   1.0994893982392E-04
(PID.TID 0000.0001) %MON dynstat_vvel_del2            =   3.0517604103156E-07
(PID.TID 0000.0001) %MON dynstat_wvel_max             =   1.1644155812533E-04
(PID.TID 0000.0001) %MON dynstat_wvel_min             =  -1.2550416634090E-04
(PID.TID 0000.0001) %MON dynstat_wvel_mean            =   1.5496065603671E-10
(PID.TID 0000.0001) %MON dynstat_wvel_sd              =   1.4940200496449E-05
(PID.TID 0000.0001) %MON dynstat_wvel_del2            =   6.8571314840132E-08
(PID.TID 0000.0001) %MON dynstat_theta_max            =   1.2000000000000E+00
(PID.TID 0000.0001) %MON dynstat_theta_min            =  -1.0000000000000E+00
(PID.TID 0000.0001) %MON dynstat_theta_mean           =   5.6542099624197E-01
(PID.TID 0000.0001) %MON dynstat_theta_sd             =   8.4905053130125E-01
(PID.TID 0000.0001) %MON dynstat_theta_del2           =   8.8311711959868E-07
(PID.TID 0000.0001) %MON dynstat_salt_max             =   3.4700000000000E+01
(PID.TID 0000.0001) %MON dynstat_salt_min             =   3.4000000000000E+01
(PID.TID 0000.0001) %MON dynstat_salt_mean            =   3.4498081900026E+01
(PID.TID 0000.0001) %MON dynstat_salt_sd              =   2.7015309820457E-01
(PID.TID 0000.0001) %MON dynstat_salt_del2            =   3.0811412457396E-07
(PID.TID 0000.0001) %MON advcfl_uvel_max              =   3.6921573477091E-04
(PID.TID 0000.0001) %MON advcfl_vvel_max              =   4.0092061568087E-04
(PID.TID 0000.0001) %MON advcfl_wvel_max              =   6.2752083170450E-04
(PID.TID 0000.0001) %MON advcfl_W_hf_max              =   6.2752083170450E-04
(PID.TID 0000.0001) %MON pe_b_mean                    =  -6.8279698026398E-01
(PID.TID 0000.0001) %MON ke_max                       =   4.8662458946488E-06
(PID.TID 0000.0001) %MON ke_mean                      =   1.5468440847166E-08
(PID.TID 0000.0001) %MON ke_vol                       =   4.6182897824586E+12
(PID.TID 0000.0001) // =======================================================
(PID.TID 0000.0001) // End MONITOR dynamic field statistics
(PID.TID 0000.0001) // =======================================================
(PID.TID 0000.0001) // =======================================================
(PID.TID 0000.0001) // Begin OBCS MONITOR field statistics
(PID.TID 0000.0001) // =======================================================
(PID.TID 0000.0001) %MON obc_N_vVel_max               =  -8.1328858411823E-08
(PID.TID 0000.0001) %MON obc_N_vVel_min               =  -8.1328858411825E-08
(PID.TID 0000.0001) %MON obc_N_vVel_mean              =  -8.1328858411825E-08
(PID.TID 0000.0001) %MON obc_N_vVel_sd                =  -3.7865323450609E-29
(PID.TID 0000.0001) %MON obc_N_vVel_Int               =  -5.3677046551805E+00
(PID.TID 0000.0001) // =======================================================
(PID.TID 0000.0001) // End OBCS MONITOR field statistics
(PID.TID 0000.0001) // =======================================================
 cg2d: Sum(rhs),rhsMax =   3.01194096258120E+00  4.53051042643723E+02
(PID.TID 0000.0001)      cg2d_init_res =   1.55168603531170E-06
(PID.TID 0000.0001)      cg2d_iters(min,last) =      -1      68
(PID.TID 0000.0001)      cg2d_last_res =   9.63813325213614E-12
(PID.TID 0000.0001) // =======================================================
(PID.TID 0000.0001) // Begin MONITOR dynamic field statistics
(PID.TID 0000.0001) // =======================================================
(PID.TID 0000.0001) %MON time_tsnumber                =                   410
(PID.TID 0000.0001) %MON time_secondsf                =   4.1000000000000E+04
(PID.TID 0000.0001) %MON dynstat_eta_max              =   5.7966168750134E+00
(PID.TID 0000.0001) %MON dynstat_eta_min              =  -1.4176596831241E+01
(PID.TID 0000.0001) %MON dynstat_eta_mean             =  -2.5269685064421E+00
(PID.TID 0000.0001) %MON dynstat_eta_sd               =   4.9419429613371E+00
(PID.TID 0000.0001) %MON dynstat_eta_del2             =   1.9058073350920E-01
(PID.TID 0000.0001) %MON dynstat_uvel_max             =   1.8444956442618E-03
(PID.TID 0000.0001) %MON dynstat_uvel_min             =  -3.7059573308404E-03
(PID.TID 0000.0001) %MON dynstat_uvel_mean            =  -1.4361004476514E-09
(PID.TID 0000.0001) %MON dynstat_uvel_sd              =   1.3896956847645E-04
(PID.TID 0000.0001) %MON dynstat_uvel_del2            =   2.8393183286757E-07
(PID.TID 0000.0001) %MON dynstat_vvel_max             =   4.0217079622618E-03
(PID.TID 0000.0001) %MON dynstat_vvel_min             =  -1.9508292933237E-03
(PID.TID 0000.0001) %MON dynstat_vvel_mean            =  -6.7832245519335E-08
(PID.TID 0000.0001) %MON dynstat_vvel_sd              =   1.0997994877308E-04
(PID.TID 0000.0001) %MON dynstat_vvel_del2            =   3.0498796826796E-07
(PID.TID 0000.0001) %MON dynstat_wvel_max             =   1.1580644754481E-04
(PID.TID 0000.0001) %MON dynstat_wvel_min             =  -1.2609474492611E-04
(PID.TID 0000.0001) %MON dynstat_wvel_mean            =   1.5636001685813E-10
(PID.TID 0000.0001) %MON dynstat_wvel_sd              =   1.4911457011112E-05
(PID.TID 0000.0001) %MON dynstat_wvel_del2            =   6.8373157850099E-08
(PID.TID 0000.0001) %MON dynstat_theta_max            =   1.2000000000000E+00
(PID.TID 0000.0001) %MON dynstat_theta_min            =  -1.0000000000000E+00
(PID.TID 0000.0001) %MON dynstat_theta_mean           =   5.6542077198729E-01
(PID.TID 0000.0001) %MON dynstat_theta_sd             =   8.4905047823127E-01
(PID.TID 0000.0001) %MON dynstat_theta_del2           =   8.8241435164466E-07
(PID.TID 0000.0001) %MON dynstat_salt_max             =   3.4700000000000E+01
(PID.TID 0000.0001) %MON dynstat_salt_min             =   3.4000000000000E+01
(PID.TID 0000.0001) %MON dynstat_salt_mean            =   3.4498081811210E+01
(PID.TID 0000.0001) %MON dynstat_salt_sd              =   2.7015308181376E-01
(PID.TID 0000.0001) %MON dynstat_salt_del2            =   3.0808614927782E-07
(PID.TID 0000.0001) %MON advcfl_uvel_max              =   3.7059573308404E-04
(PID.TID 0000.0001) %MON advcfl_vvel_max              =   4.0217079622618E-04
(PID.TID 0000.0001) %MON advcfl_wvel_max              =   6.3047372463054E-04
(PID.TID 0000.0001) %MON advcfl_W_hf_max              =   6.3047372463054E-04
(PID.TID 0000.0001) %MON pe_b_mean                    =  -6.8279643187235E-01
(PID.TID 0000.0001) %MON ke_max                       =   4.8940747788551E-06
(PID.TID 0000.0001) %MON ke_mean                      =   1.5522350090903E-08
(PID.TID 0000.0001) %MON ke_vol                       =   4.6182897947661E+12
(PID.TID 0000.0001) // =======================================================
(PID.TID 0000.0001) // End MONITOR dynamic field statistics
(PID.TID 0000.0001) // =======================================================
(PID.TID 0000.0001) // =======================================================
(PID.TID 0000.0001) // Begin OBCS MONITOR field statistics
(PID.TID 0000.0001) // =======================================================
(PID.TID 0000.0001) %MON obc_N_vVel_max               =  -7.9107846614485E-08
(PID.TID 0000.0001) %MON obc_N_vVel_min               =  -7.9107846614488E-08
(PID.TID 0000.0001) %MON obc_N_vVel_mean              =  -7.9107846614488E-08
(PID.TID 0000.0001) %MON obc_N_vVel_sd                =  -3.7234234726432E-28
(PID.TID 0000.0001) %MON obc_N_vVel_Int               =  -5.2211178765562E+00
(PID.TID 0000.0001) // =======================================================
(PID.TID 0000.0001) // End OBCS MONITOR field statistics
(PID.TID 0000.0001) // =======================================================
 cg2d: Sum(rhs),rhsMax =   3.01193855154866E+00  4.53051033970224E+02
(PID.TID 0000.0001)      cg2d_init_res =   1.54897895045783E-06
(PID.TID 0000.0001)      cg2d_iters(min,last) =      -1      68
(PID.TID 0000.0001)      cg2d_last_res =   9.65878637118812E-12
(PID.TID 0000.0001) // =======================================================
(PID.TID 0000.0001) // Begin MONITOR dynamic field statistics
(PID.TID 0000.0001) // =======================================================
(PID.TID 0000.0001) %MON time_tsnumber                =                   411
(PID.TID 0000.0001) %MON time_secondsf                =   4.1100000000000E+04
(PID.TID 0000.0001) %MON dynstat_eta_max              =   5.7966196188524E+00
(PID.TID 0000.0001) %MON dynstat_eta_min              =  -1.4176591140994E+01
(PID.TID 0000.0001) %MON dynstat_eta_mean             =  -2.5269664352480E+00
(PID.TID 0000.0001) %MON dynstat_eta_sd               =   4.9419423020977E+00
(PID.TID 0000.0001) %MON dynstat_eta_del2             =   1.9058073570038E-01
(PID.TID 0000.0001) %MON dynstat_uvel_max             =   1.8474558877504E-03
(PID.TID 0000.0001) %MON dynstat_uvel_min             =  -3.7197835957992E-03
(PID.TID 0000.0001) %MON dynstat_uvel_mean            =  -1.4481185639884E-09
(PID.TID 0000.0001) %MON dynstat_uvel_sd              =   1.3934001447124E-04
(PID.TID 0000.0001) %MON dynstat_uvel_del2            =   2.8398387045846E-07
(PID.TID 0000.0001) %MON dynstat_vvel_max             =   4.0342135999369E-03
(PID.TID 0000.0001) %MON dynstat_vvel_min             =  -1.9528634432957E-03
(PID.TID 0000.0001) %MON dynstat_vvel_mean            =  -6.5190084875240E-08
(PID.TID 0000.0001) %MON dynstat_vvel_sd              =   1.1000913042456E-04
(PID.TID 0000.0001) %MON dynstat_vvel_del2            =   3.0481579304195E-07
(PID.TID 0000.0001) %MON dynstat_wvel_max             =   1.1517204372211E-04
(PID.TID 0000.0001) %MON dynstat_wvel_min             =  -1.2668645479413E-04
(PID.TID 0000.0001) %MON dynstat_wvel_mean            =   1.5716712449325E-10
(PID.TID 0000.0001) %MON dynstat_wvel_sd              =   1.4883523552348E-05
(PID.TID 0000.0001) %MON dynstat_wvel_del2            =   6.8197441020915E-08
(PID.TID 0000.0001) %MON dynstat_theta_max            =   1.2000000000000E+00
(PID.TID 0000.0001) %MON dynstat_theta_min            =  -1.0000000000000E+00
(PID.TID 0000.0001) %MON dynstat_theta_mean           =   5.6542054744354E-01
(PID.TID 0000.0001) %MON dynstat_theta_sd             =   8.4905042508800E-01
(PID.TID 0000.0001) %MON dynstat_theta_del2           =   8.8172370813848E-07
(PID.TID 0000.0001) %MON dynstat_salt_max             =   3.4700000000000E+01
(PID.TID 0000.0001) %MON dynstat_salt_min             =   3.4000000000000E+01
(PID.TID 0000.0001) %MON dynstat_salt_mean            =   3.4498081722283E+01
(PID.TID 0000.0001) %MON dynstat_salt_sd              =   2.7015306538700E-01
(PID.TID 0000.0001) %MON dynstat_salt_del2            =   3.0806231606148E-07
(PID.TID 0000.0001) %MON advcfl_uvel_max              =   3.7197835957992E-04
(PID.TID 0000.0001) %MON advcfl_vvel_max              =   4.0342135999369E-04
(PID.TID 0000.0001) %MON advcfl_wvel_max              =   6.3343227397064E-04
(PID.TID 0000.0001) %MON advcfl_W_hf_max              =   6.3343227397064E-04
(PID.TID 0000.0001) %MON pe_b_mean                    =  -6.8279588334937E-01
(PID.TID 0000.0001) %MON ke_max                       =   4.9219931567749E-06
(PID.TID 0000.0001) %MON ke_mean                      =   1.5576139958289E-08
(PID.TID 0000.0001) %MON ke_vol                       =   4.6182898070717E+12
(PID.TID 0000.0001) // =======================================================
(PID.TID 0000.0001) // End MONITOR dynamic field statistics
(PID.TID 0000.0001) // =======================================================
(PID.TID 0000.0001) // =======================================================
(PID.TID 0000.0001) // Begin OBCS MONITOR field statistics
(PID.TID 0000.0001) // =======================================================
(PID.TID 0000.0001) %MON obc_N_vVel_max               =  -7.6763381179227E-08
(PID.TID 0000.0001) %MON obc_N_vVel_min               =  -7.6763381179228E-08
(PID.TID 0000.0001) %MON obc_N_vVel_mean              =  -7.6763381179228E-08
(PID.TID 0000.0001) %MON obc_N_vVel_sd                =   1.1982181969501E-14
(PID.TID 0000.0001) %MON obc_N_vVel_Int               =  -5.0663831578290E+00
(PID.TID 0000.0001) // =======================================================
(PID.TID 0000.0001) // End OBCS MONITOR field statistics
(PID.TID 0000.0001) // =======================================================
 cg2d: Sum(rhs),rhsMax =   3.01193614063578E+00  4.53051025368164E+02
(PID.TID 0000.0001)      cg2d_init_res =   1.54679821430712E-06
(PID.TID 0000.0001)      cg2d_iters(min,last) =      -1      68
(PID.TID 0000.0001)      cg2d_last_res =   9.68727866651528E-12
(PID.TID 0000.0001) // =======================================================
(PID.TID 0000.0001) // Begin MONITOR dynamic field statistics
(PID.TID 0000.0001) // =======================================================
(PID.TID 0000.0001) %MON time_tsnumber                =                   412
(PID.TID 0000.0001) %MON time_secondsf                =   4.1200000000000E+04
(PID.TID 0000.0001) %MON dynstat_eta_max              =   5.7966223565502E+00
(PID.TID 0000.0001) %MON dynstat_eta_min              =  -1.4176585450985E+01
(PID.TID 0000.0001) %MON dynstat_eta_mean             =  -2.5269643645527E+00
(PID.TID 0000.0001) %MON dynstat_eta_sd               =   4.9419416431481E+00
(PID.TID 0000.0001) %MON dynstat_eta_del2             =   1.9058073790806E-01
(PID.TID 0000.0001) %MON dynstat_uvel_max             =   1.8504154374916E-03
(PID.TID 0000.0001) %MON dynstat_uvel_min             =  -3.7336362801685E-03
(PID.TID 0000.0001) %MON dynstat_uvel_mean            =  -1.4560671647296E-09
(PID.TID 0000.0001) %MON dynstat_uvel_sd              =   1.3971005060540E-04
(PID.TID 0000.0001) %MON dynstat_uvel_del2            =   2.8404077476260E-07
(PID.TID 0000.0001) %MON dynstat_vvel_max             =   4.0467231491581E-03
(PID.TID 0000.0001) %MON dynstat_vvel_min             =  -1.9548569910413E-03
(PID.TID 0000.0001) %MON dynstat_vvel_mean            =  -6.2559119152760E-08
(PID.TID 0000.0001) %MON dynstat_vvel_sd              =   1.1003653311808E-04
(PID.TID 0000.0001) %MON dynstat_vvel_del2            =   3.0466052087757E-07
(PID.TID 0000.0001) %MON dynstat_wvel_max             =   1.1453836864582E-04
(PID.TID 0000.0001) %MON dynstat_wvel_min             =  -1.2727929372446E-04
(PID.TID 0000.0001) %MON dynstat_wvel_mean            =   1.5736768097508E-10
(PID.TID 0000.0001) %MON dynstat_wvel_sd              =   1.4856424891218E-05
(PID.TID 0000.0001) %MON dynstat_wvel_del2            =   6.8046015641956E-08
(PID.TID 0000.0001) %MON dynstat_theta_max            =   1.2000000000000E+00
(PID.TID 0000.0001) %MON dynstat_theta_min            =  -1.0000000000000E+00
(PID.TID 0000.0001) %MON dynstat_theta_mean           =   5.6542032261235E-01
(PID.TID 0000.0001) %MON dynstat_theta_sd             =   8.4905037185715E-01
(PID.TID 0000.0001) %MON dynstat_theta_del2           =   8.8104608657503E-07
(PID.TID 0000.0001) %MON dynstat_salt_max             =   3.4700000000000E+01
(PID.TID 0000.0001) %MON dynstat_salt_min             =   3.4000000000000E+01
(PID.TID 0000.0001) %MON dynstat_salt_mean            =   3.4498081633244E+01
(PID.TID 0000.0001) %MON dynstat_salt_sd              =   2.7015304891974E-01
(PID.TID 0000.0001) %MON dynstat_salt_del2            =   3.0804289746464E-07
(PID.TID 0000.0001) %MON advcfl_uvel_max              =   3.7336362801685E-04
(PID.TID 0000.0001) %MON advcfl_vvel_max              =   4.0467231491581E-04
(PID.TID 0000.0001) %MON advcfl_wvel_max              =   6.3639646862228E-04
(PID.TID 0000.0001) %MON advcfl_W_hf_max              =   6.3639646862228E-04
(PID.TID 0000.0001) %MON pe_b_mean                    =  -6.8279533468533E-01
(PID.TID 0000.0001) %MON ke_max                       =   4.9500013843099E-06
(PID.TID 0000.0001) %MON ke_mean                      =   1.5629813404805E-08
(PID.TID 0000.0001) %MON ke_vol                       =   4.6182898193746E+12
(PID.TID 0000.0001) // =======================================================
(PID.TID 0000.0001) // End MONITOR dynamic field statistics
(PID.TID 0000.0001) // =======================================================
(PID.TID 0000.0001) // =======================================================
(PID.TID 0000.0001) // Begin OBCS MONITOR field statistics
(PID.TID 0000.0001) // =======================================================
(PID.TID 0000.0001) %MON obc_N_vVel_max               =  -7.4375427029572E-08
(PID.TID 0000.0001) %MON obc_N_vVel_min               =  -7.4375427029573E-08
(PID.TID 0000.0001) %MON obc_N_vVel_mean              =  -7.4375427029572E-08
(PID.TID 0000.0001) %MON obc_N_vVel_sd                =   1.3930534185176E-14
(PID.TID 0000.0001) %MON obc_N_vVel_Int               =  -4.9087781839517E+00
(PID.TID 0000.0001) // =======================================================
(PID.TID 0000.0001) // End OBCS MONITOR field statistics
(PID.TID 0000.0001) // =======================================================
 cg2d: Sum(rhs),rhsMax =   3.01193372996415E+00  4.53051016810773E+02
(PID.TID 0000.0001)      cg2d_init_res =   1.54516423281020E-06
(PID.TID 0000.0001)      cg2d_iters(min,last) =      -1      68
(PID.TID 0000.0001)      cg2d_last_res =   9.71991655598951E-12
(PID.TID 0000.0001) // =======================================================
(PID.TID 0000.0001) // Begin MONITOR dynamic field statistics
(PID.TID 0000.0001) // =======================================================
(PID.TID 0000.0001) %MON time_tsnumber                =                   413
(PID.TID 0000.0001) %MON time_secondsf                =   4.1300000000000E+04
(PID.TID 0000.0001) %MON dynstat_eta_max              =   5.7966250882013E+00
(PID.TID 0000.0001) %MON dynstat_eta_min              =  -1.4176579761005E+01
(PID.TID 0000.0001) %MON dynstat_eta_mean             =  -2.5269622943091E+00
(PID.TID 0000.0001) %MON dynstat_eta_sd               =   4.9419409843919E+00
(PID.TID 0000.0001) %MON dynstat_eta_del2             =   1.9058074013172E-01
(PID.TID 0000.0001) %MON dynstat_uvel_max             =   1.8533744293485E-03
(PID.TID 0000.0001) %MON dynstat_uvel_min             =  -3.7475155214519E-03
(PID.TID 0000.0001) %MON dynstat_uvel_mean            =  -1.4599884933968E-09
(PID.TID 0000.0001) %MON dynstat_uvel_sd              =   1.4007966423380E-04
(PID.TID 0000.0001) %MON dynstat_uvel_del2            =   2.8410252066520E-07
(PID.TID 0000.0001) %MON dynstat_vvel_max             =   4.0592366896732E-03
(PID.TID 0000.0001) %MON dynstat_vvel_min             =  -1.9568098744385E-03
(PID.TID 0000.0001) %MON dynstat_vvel_mean            =  -6.0025964001008E-08
(PID.TID 0000.0001) %MON dynstat_vvel_sd              =   1.1006217758850E-04
(PID.TID 0000.0001) %MON dynstat_vvel_del2            =   3.0452169088975E-07
(PID.TID 0000.0001) %MON dynstat_wvel_max             =   1.1390544354441E-04
(PID.TID 0000.0001) %MON dynstat_wvel_min             =  -1.2787325946877E-04
(PID.TID 0000.0001) %MON dynstat_wvel_mean            =   1.5696793984949E-10
(PID.TID 0000.0001) %MON dynstat_wvel_sd              =   1.4829986969566E-05
(PID.TID 0000.0001) %MON dynstat_wvel_del2            =   6.7917772747851E-08
(PID.TID 0000.0001) %MON dynstat_theta_max            =   1.2000000000000E+00
(PID.TID 0000.0001) %MON dynstat_theta_min            =  -1.0000000000000E+00
(PID.TID 0000.0001) %MON dynstat_theta_mean           =   5.6542009749555E-01
(PID.TID 0000.0001) %MON dynstat_theta_sd             =   8.4905031852662E-01
(PID.TID 0000.0001) %MON dynstat_theta_del2           =   8.8038345191077E-07
(PID.TID 0000.0001) %MON dynstat_salt_max             =   3.4700000000000E+01
(PID.TID 0000.0001) %MON dynstat_salt_min             =   3.4000000000000E+01
(PID.TID 0000.0001) %MON dynstat_salt_mean            =   3.4498081544095E+01
(PID.TID 0000.0001) %MON dynstat_salt_sd              =   2.7015303240811E-01
(PID.TID 0000.0001) %MON dynstat_salt_del2            =   3.0802847957646E-07
(PID.TID 0000.0001) %MON advcfl_uvel_max              =   3.7475155214519E-04
(PID.TID 0000.0001) %MON advcfl_vvel_max              =   4.0592366896732E-04
(PID.TID 0000.0001) %MON advcfl_wvel_max              =   6.3936629734385E-04
(PID.TID 0000.0001) %MON advcfl_W_hf_max              =   6.3936629734385E-04
(PID.TID 0000.0001) %MON pe_b_mean                    =  -6.8279478585205E-01
(PID.TID 0000.0001) %MON ke_max                       =   4.9780998195381E-06
(PID.TID 0000.0001) %MON ke_mean                      =   1.5683370386875E-08
(PID.TID 0000.0001) %MON ke_vol                       =   4.6182898316746E+12
(PID.TID 0000.0001) // =======================================================
(PID.TID 0000.0001) // End MONITOR dynamic field statistics
(PID.TID 0000.0001) // =======================================================
(PID.TID 0000.0001) // =======================================================
(PID.TID 0000.0001) // Begin OBCS MONITOR field statistics
(PID.TID 0000.0001) // =======================================================
(PID.TID 0000.0001) %MON obc_N_vVel_max               =  -7.2024091360400E-08
(PID.TID 0000.0001) %MON obc_N_vVel_min               =  -7.2024091360401E-08
(PID.TID 0000.0001) %MON obc_N_vVel_mean              =  -7.2024091360401E-08
(PID.TID 0000.0001) %MON obc_N_vVel_sd                =  -9.4663308626521E-29
(PID.TID 0000.0001) %MON obc_N_vVel_Int               =  -4.7535900297864E+00
(PID.TID 0000.0001) // =======================================================
(PID.TID 0000.0001) // End OBCS MONITOR field statistics
(PID.TID 0000.0001) // =======================================================
 cg2d: Sum(rhs),rhsMax =   3.01193131955089E+00  4.53051008271797E+02
(PID.TID 0000.0001)      cg2d_init_res =   1.54403545788791E-06
(PID.TID 0000.0001)      cg2d_iters(min,last) =      -1      68
(PID.TID 0000.0001)      cg2d_last_res =   9.74668061179482E-12
(PID.TID 0000.0001) // =======================================================
(PID.TID 0000.0001) // Begin MONITOR dynamic field statistics
(PID.TID 0000.0001) // =======================================================
(PID.TID 0000.0001) %MON time_tsnumber                =                   414
(PID.TID 0000.0001) %MON time_secondsf                =   4.1400000000000E+04
(PID.TID 0000.0001) %MON dynstat_eta_max              =   5.7966278141172E+00
(PID.TID 0000.0001) %MON dynstat_eta_min              =  -1.4176574070666E+01
(PID.TID 0000.0001) %MON dynstat_eta_mean             =  -2.5269602243851E+00
(PID.TID 0000.0001) %MON dynstat_eta_sd               =   4.9419403257052E+00
(PID.TID 0000.0001) %MON dynstat_eta_del2             =   1.9058074237068E-01
(PID.TID 0000.0001) %MON dynstat_uvel_max             =   1.8563329980594E-03
(PID.TID 0000.0001) %MON dynstat_uvel_min             =  -3.7614214576589E-03
(PID.TID 0000.0001) %MON dynstat_uvel_mean            =  -1.4600567755430E-09
(PID.TID 0000.0001) %MON dynstat_uvel_sd              =   1.4044884316973E-04
(PID.TID 0000.0001) %MON dynstat_uvel_del2            =   2.8416908630397E-07
(PID.TID 0000.0001) %MON dynstat_vvel_max             =   4.0717543024635E-03
(PID.TID 0000.0001) %MON dynstat_vvel_min             =  -1.9587220337947E-03
(PID.TID 0000.0001) %MON dynstat_vvel_mean            =  -5.7672449160235E-08
(PID.TID 0000.0001) %MON dynstat_vvel_sd              =   1.1008606458670E-04
(PID.TID 0000.0001) %MON dynstat_vvel_del2            =   3.0439747356078E-07
(PID.TID 0000.0001) %MON dynstat_wvel_max             =   1.1327328967729E-04
(PID.TID 0000.0001) %MON dynstat_wvel_min             =  -1.2846834965947E-04
(PID.TID 0000.0001) %MON dynstat_wvel_mean            =   1.5599560741227E-10
(PID.TID 0000.0001) %MON dynstat_wvel_sd              =   1.4803849944274E-05
(PID.TID 0000.0001) %MON dynstat_wvel_del2            =   6.7808844592361E-08
(PID.TID 0000.0001) %MON dynstat_theta_max            =   1.2000000000000E+00
(PID.TID 0000.0001) %MON dynstat_theta_min            =  -1.0000000000000E+00
(PID.TID 0000.0001) %MON dynstat_theta_mean           =   5.6541987209533E-01
(PID.TID 0000.0001) %MON dynstat_theta_sd             =   8.4905026506339E-01
(PID.TID 0000.0001) %MON dynstat_theta_del2           =   8.7973911620188E-07
(PID.TID 0000.0001) %MON dynstat_salt_max             =   3.4700000000000E+01
(PID.TID 0000.0001) %MON dynstat_salt_min             =   3.4000000000000E+01
(PID.TID 0000.0001) %MON dynstat_salt_mean            =   3.4498081454836E+01
(PID.TID 0000.0001) %MON dynstat_salt_sd              =   2.7015301584151E-01
(PID.TID 0000.0001) %MON dynstat_salt_del2            =   3.0802003199353E-07
(PID.TID 0000.0001) %MON advcfl_uvel_max              =   3.7614214576589E-04
(PID.TID 0000.0001) %MON advcfl_vvel_max              =   4.0717543024635E-04
(PID.TID 0000.0001) %MON advcfl_wvel_max              =   6.4234174829734E-04
(PID.TID 0000.0001) %MON advcfl_W_hf_max              =   6.4234174829734E-04
(PID.TID 0000.0001) %MON pe_b_mean                    =  -6.8279423680426E-01
(PID.TID 0000.0001) %MON ke_max                       =   5.0062888248287E-06
(PID.TID 0000.0001) %MON ke_mean                      =   1.5736808716668E-08
(PID.TID 0000.0001) %MON ke_vol                       =   4.6182898439718E+12
(PID.TID 0000.0001) // =======================================================
(PID.TID 0000.0001) // End MONITOR dynamic field statistics
(PID.TID 0000.0001) // =======================================================
(PID.TID 0000.0001) // =======================================================
(PID.TID 0000.0001) // Begin OBCS MONITOR field statistics
(PID.TID 0000.0001) // =======================================================
(PID.TID 0000.0001) %MON obc_N_vVel_max               =  -6.9787007775313E-08
(PID.TID 0000.0001) %MON obc_N_vVel_min               =  -6.9787007775314E-08
(PID.TID 0000.0001) %MON obc_N_vVel_mean              =  -6.9787007775313E-08
(PID.TID 0000.0001) %MON obc_N_vVel_sd                =   1.5306589719812E-14
(PID.TID 0000.0001) %MON obc_N_vVel_Int               =  -4.6059425131707E+00
(PID.TID 0000.0001) // =======================================================
(PID.TID 0000.0001) // End OBCS MONITOR field statistics
(PID.TID 0000.0001) // =======================================================
 cg2d: Sum(rhs),rhsMax =   3.01192890930965E+00  4.53050999726128E+02
(PID.TID 0000.0001)      cg2d_init_res =   1.54331925036825E-06
(PID.TID 0000.0001)      cg2d_iters(min,last) =      -1      68
(PID.TID 0000.0001)      cg2d_last_res =   9.76257859678658E-12
(PID.TID 0000.0001) // =======================================================
(PID.TID 0000.0001) // Begin MONITOR dynamic field statistics
(PID.TID 0000.0001) // =======================================================
(PID.TID 0000.0001) %MON time_tsnumber                =                   415
(PID.TID 0000.0001) %MON time_secondsf                =   4.1500000000000E+04
(PID.TID 0000.0001) %MON dynstat_eta_max              =   5.7966305347161E+00
(PID.TID 0000.0001) %MON dynstat_eta_min              =  -1.4176568379417E+01
(PID.TID 0000.0001) %MON dynstat_eta_mean             =  -2.5269581545681E+00
(PID.TID 0000.0001) %MON dynstat_eta_sd               =   4.9419396669439E+00
(PID.TID 0000.0001) %MON dynstat_eta_del2             =   1.9058074462444E-01
(PID.TID 0000.0001) %MON dynstat_uvel_max             =   1.8592912771531E-03
(PID.TID 0000.0001) %MON dynstat_uvel_min             =  -3.7753542272947E-03
(PID.TID 0000.0001) %MON dynstat_uvel_mean            =  -1.4565751272354E-09
(PID.TID 0000.0001) %MON dynstat_uvel_sd              =   1.4081757575960E-04
(PID.TID 0000.0001) %MON dynstat_uvel_del2            =   2.8424045280743E-07
(PID.TID 0000.0001) %MON dynstat_vvel_max             =   4.0842760700663E-03
(PID.TID 0000.0001) %MON dynstat_vvel_min             =  -1.9605934057934E-03
(PID.TID 0000.0001) %MON dynstat_vvel_mean            =  -5.5572996846042E-08
(PID.TID 0000.0001) %MON dynstat_vvel_sd              =   1.1010818940648E-04
(PID.TID 0000.0001) %MON dynstat_vvel_del2            =   3.0428493878977E-07
(PID.TID 0000.0001) %MON dynstat_wvel_max             =   1.1264192776762E-04
(PID.TID 0000.0001) %MON dynstat_wvel_min             =  -1.2906456187711E-04
(PID.TID 0000.0001) %MON dynstat_wvel_mean            =   1.5449668778657E-10
(PID.TID 0000.0001) %MON dynstat_wvel_sd              =   1.4777505104770E-05
(PID.TID 0000.0001) %MON dynstat_wvel_del2            =   6.7713165013246E-08
(PID.TID 0000.0001) %MON dynstat_theta_max            =   1.2000000000000E+00
(PID.TID 0000.0001) %MON dynstat_theta_min            =  -1.0000000000000E+00
(PID.TID 0000.0001) %MON dynstat_theta_mean           =   5.6541964641402E-01
(PID.TID 0000.0001) %MON dynstat_theta_sd             =   8.4905021142242E-01
(PID.TID 0000.0001) %MON dynstat_theta_del2           =   8.7911701557079E-07
(PID.TID 0000.0001) %MON dynstat_salt_max             =   3.4700000000000E+01
(PID.TID 0000.0001) %MON dynstat_salt_min             =   3.4000000000000E+01
(PID.TID 0000.0001) %MON dynstat_salt_mean            =   3.4498081365467E+01
(PID.TID 0000.0001) %MON dynstat_salt_sd              =   2.7015299920573E-01
(PID.TID 0000.0001) %MON dynstat_salt_del2            =   3.0801870562101E-07
(PID.TID 0000.0001) %MON advcfl_uvel_max              =   3.7753542272947E-04
(PID.TID 0000.0001) %MON advcfl_vvel_max              =   4.0842760700663E-04
(PID.TID 0000.0001) %MON advcfl_wvel_max              =   6.4532280938554E-04
(PID.TID 0000.0001) %MON advcfl_W_hf_max              =   6.4532280938554E-04
(PID.TID 0000.0001) %MON pe_b_mean                    =  -6.8279368748168E-01
(PID.TID 0000.0001) %MON ke_max                       =   5.0345687674536E-06
(PID.TID 0000.0001) %MON ke_mean                      =   1.5790125670304E-08
(PID.TID 0000.0001) %MON ke_vol                       =   4.6182898562672E+12
(PID.TID 0000.0001) // =======================================================
(PID.TID 0000.0001) // End MONITOR dynamic field statistics
(PID.TID 0000.0001) // =======================================================
(PID.TID 0000.0001) // =======================================================
(PID.TID 0000.0001) // Begin OBCS MONITOR field statistics
(PID.TID 0000.0001) // =======================================================
(PID.TID 0000.0001) %MON obc_N_vVel_max               =  -6.7736575766464E-08
(PID.TID 0000.0001) %MON obc_N_vVel_min               =  -6.7736575766465E-08
(PID.TID 0000.0001) %MON obc_N_vVel_mean              =  -6.7736575766464E-08
(PID.TID 0000.0001) %MON obc_N_vVel_sd                =  -4.4965071597598E-29
(PID.TID 0000.0001) %MON obc_N_vVel_Int               =  -4.4706140005866E+00
(PID.TID 0000.0001) // =======================================================
(PID.TID 0000.0001) // End OBCS MONITOR field statistics
(PID.TID 0000.0001) // =======================================================
 cg2d: Sum(rhs),rhsMax =   3.01192649905300E+00  4.53050991150090E+02
(PID.TID 0000.0001)      cg2d_init_res =   1.54287052738422E-06
(PID.TID 0000.0001)      cg2d_iters(min,last) =      -1      68
(PID.TID 0000.0001)      cg2d_last_res =   9.76812758719854E-12
(PID.TID 0000.0001) // =======================================================
(PID.TID 0000.0001) // Begin MONITOR dynamic field statistics
(PID.TID 0000.0001) // =======================================================
(PID.TID 0000.0001) %MON time_tsnumber                =                   416
(PID.TID 0000.0001) %MON time_secondsf                =   4.1600000000000E+04
(PID.TID 0000.0001) %MON dynstat_eta_max              =   5.7966332505320E+00
(PID.TID 0000.0001) %MON dynstat_eta_min              =  -1.4176562686539E+01
(PID.TID 0000.0001) %MON dynstat_eta_mean             =  -2.5269560845689E+00
(PID.TID 0000.0001) %MON dynstat_eta_sd               =   4.9419390079511E+00
(PID.TID 0000.0001) %MON dynstat_eta_del2             =   1.9058074689272E-01
(PID.TID 0000.0001) %MON dynstat_uvel_max             =   1.8622493990996E-03
(PID.TID 0000.0001) %MON dynstat_uvel_min             =  -3.7893139694516E-03
(PID.TID 0000.0001) %MON dynstat_uvel_mean            =  -1.4499450609023E-09
(PID.TID 0000.0001) %MON dynstat_uvel_sd              =   1.4118585095146E-04
(PID.TID 0000.0001) %MON dynstat_uvel_del2            =   2.8431660395748E-07
(PID.TID 0000.0001) %MON dynstat_vvel_max             =   4.0968020770729E-03
(PID.TID 0000.0001) %MON dynstat_vvel_min             =  -1.9624239235103E-03
(PID.TID 0000.0001) %MON dynstat_vvel_mean            =  -5.3792254987663E-08
(PID.TID 0000.0001) %MON dynstat_vvel_sd              =   1.1012856172160E-04
(PID.TID 0000.0001) %MON dynstat_vvel_del2            =   3.0418045495379E-07
(PID.TID 0000.0001) %MON dynstat_wvel_max             =   1.1201137842162E-04
(PID.TID 0000.0001) %MON dynstat_wvel_min             =  -1.2966189368925E-04
(PID.TID 0000.0001) %MON dynstat_wvel_mean            =   1.5253371685716E-10
(PID.TID 0000.0001) %MON dynstat_wvel_sd              =   1.4750350595450E-05
(PID.TID 0000.0001) %MON dynstat_wvel_del2            =   6.7623303577366E-08
(PID.TID 0000.0001) %MON dynstat_theta_max            =   1.2000000000000E+00
(PID.TID 0000.0001) %MON dynstat_theta_min            =  -1.0000000000000E+00
(PID.TID 0000.0001) %MON dynstat_theta_mean           =   5.6541942045362E-01
(PID.TID 0000.0001) %MON dynstat_theta_sd             =   8.4905015759290E-01
(PID.TID 0000.0001) %MON dynstat_theta_del2           =   8.7852162280227E-07
(PID.TID 0000.0001) %MON dynstat_salt_max             =   3.4700000000000E+01
(PID.TID 0000.0001) %MON dynstat_salt_min             =   3.4000000000000E+01
(PID.TID 0000.0001) %MON dynstat_salt_mean            =   3.4498081275990E+01
(PID.TID 0000.0001) %MON dynstat_salt_sd              =   2.7015298249702E-01
(PID.TID 0000.0001) %MON dynstat_salt_del2            =   3.0802579705188E-07
(PID.TID 0000.0001) %MON advcfl_uvel_max              =   3.7893139694516E-04
(PID.TID 0000.0001) %MON advcfl_vvel_max              =   4.0968020770729E-04
(PID.TID 0000.0001) %MON advcfl_wvel_max              =   6.4830946844627E-04
(PID.TID 0000.0001) %MON advcfl_W_hf_max              =   6.4830946844627E-04
(PID.TID 0000.0001) %MON pe_b_mean                    =  -6.8279313780948E-01
(PID.TID 0000.0001) %MON ke_max                       =   5.0629400207888E-06
(PID.TID 0000.0001) %MON ke_mean                      =   1.5843320182439E-08
(PID.TID 0000.0001) %MON ke_vol                       =   4.6182898685619E+12
(PID.TID 0000.0001) // =======================================================
(PID.TID 0000.0001) // End MONITOR dynamic field statistics
(PID.TID 0000.0001) // =======================================================
(PID.TID 0000.0001) // =======================================================
(PID.TID 0000.0001) // Begin OBCS MONITOR field statistics
(PID.TID 0000.0001) // =======================================================
(PID.TID 0000.0001) %MON obc_N_vVel_max               =  -6.5937694622307E-08
(PID.TID 0000.0001) %MON obc_N_vVel_min               =  -6.5937694622308E-08
(PID.TID 0000.0001) %MON obc_N_vVel_mean              =  -6.5937694622308E-08
(PID.TID 0000.0001) %MON obc_N_vVel_sd                =  -1.2779546664580E-28
(PID.TID 0000.0001) %MON obc_N_vVel_Int               =  -4.3518878450723E+00
(PID.TID 0000.0001) // =======================================================
(PID.TID 0000.0001) // End OBCS MONITOR field statistics
(PID.TID 0000.0001) // =======================================================
 cg2d: Sum(rhs),rhsMax =   3.01192408850724E+00  4.53050982522088E+02
(PID.TID 0000.0001)      cg2d_init_res =   1.54253780674384E-06
(PID.TID 0000.0001)      cg2d_iters(min,last) =      -1      68
(PID.TID 0000.0001)      cg2d_last_res =   9.77070979158865E-12
(PID.TID 0000.0001) // =======================================================
(PID.TID 0000.0001) // Begin MONITOR dynamic field statistics
(PID.TID 0000.0001) // =======================================================
(PID.TID 0000.0001) %MON time_tsnumber                =                   417
(PID.TID 0000.0001) %MON time_secondsf                =   4.1700000000000E+04
(PID.TID 0000.0001) %MON dynstat_eta_max              =   5.7966359621836E+00
(PID.TID 0000.0001) %MON dynstat_eta_min              =  -1.4176556991201E+01
(PID.TID 0000.0001) %MON dynstat_eta_mean             =  -2.5269540140373E+00
(PID.TID 0000.0001) %MON dynstat_eta_sd               =   4.9419383485663E+00
(PID.TID 0000.0001) %MON dynstat_eta_del2             =   1.9058074917547E-01
(PID.TID 0000.0001) %MON dynstat_uvel_max             =   1.8652074953494E-03
(PID.TID 0000.0001) %MON dynstat_uvel_min             =  -3.8033008238889E-03
(PID.TID 0000.0001) %MON dynstat_uvel_mean            =  -1.4406413276363E-09
(PID.TID 0000.0001) %MON dynstat_uvel_sd              =   1.4155365838364E-04
(PID.TID 0000.0001) %MON dynstat_uvel_del2            =   2.8439752578651E-07
(PID.TID 0000.0001) %MON dynstat_vvel_max             =   4.1093324105850E-03
(PID.TID 0000.0001) %MON dynstat_vvel_min             =  -1.9642135154596E-03
(PID.TID 0000.0001) %MON dynstat_vvel_mean            =  -5.2383093377662E-08
(PID.TID 0000.0001) %MON dynstat_vvel_sd              =   1.1014722846971E-04
(PID.TID 0000.0001) %MON dynstat_vvel_del2            =   3.0408016294886E-07
(PID.TID 0000.0001) %MON dynstat_wvel_max             =   1.1138166179531E-04
(PID.TID 0000.0001) %MON dynstat_wvel_min             =  -1.3026034270590E-04
(PID.TID 0000.0001) %MON dynstat_wvel_mean            =   1.5018424634341E-10
(PID.TID 0000.0001) %MON dynstat_wvel_sd              =   1.4721758410665E-05
(PID.TID 0000.0001) %MON dynstat_wvel_del2            =   6.7531451293973E-08
(PID.TID 0000.0001) %MON dynstat_theta_max            =   1.2000000000000E+00
(PID.TID 0000.0001) %MON dynstat_theta_min            =  -1.0000000000000E+00
(PID.TID 0000.0001) %MON dynstat_theta_mean           =   5.6541919421635E-01
(PID.TID 0000.0001) %MON dynstat_theta_sd             =   8.4905010359113E-01
(PID.TID 0000.0001) %MON dynstat_theta_del2           =   8.7795738505640E-07
(PID.TID 0000.0001) %MON dynstat_salt_max             =   3.4700000000000E+01
(PID.TID 0000.0001) %MON dynstat_salt_min             =   3.4000000000000E+01
(PID.TID 0000.0001) %MON dynstat_salt_mean            =   3.4498081186405E+01
(PID.TID 0000.0001) %MON dynstat_salt_sd              =   2.7015296572078E-01
(PID.TID 0000.0001) %MON dynstat_salt_del2            =   3.0804258856872E-07
(PID.TID 0000.0001) %MON advcfl_uvel_max              =   3.8033008238889E-04
(PID.TID 0000.0001) %MON advcfl_vvel_max              =   4.1093324105850E-04
(PID.TID 0000.0001) %MON advcfl_wvel_max              =   6.5130171352950E-04
(PID.TID 0000.0001) %MON advcfl_W_hf_max              =   6.5130171352950E-04
(PID.TID 0000.0001) %MON pe_b_mean                    =  -6.8279258770298E-01
(PID.TID 0000.0001) %MON ke_max                       =   5.0914029653479E-06
(PID.TID 0000.0001) %MON ke_mean                      =   1.5896395381993E-08
(PID.TID 0000.0001) %MON ke_vol                       =   4.6182898808577E+12
(PID.TID 0000.0001) // =======================================================
(PID.TID 0000.0001) // End MONITOR dynamic field statistics
(PID.TID 0000.0001) // =======================================================
(PID.TID 0000.0001) // =======================================================
(PID.TID 0000.0001) // Begin OBCS MONITOR field statistics
(PID.TID 0000.0001) // =======================================================
(PID.TID 0000.0001) %MON obc_N_vVel_max               =  -6.4445752863430E-08
(PID.TID 0000.0001) %MON obc_N_vVel_min               =  -6.4445752863430E-08
(PID.TID 0000.0001) %MON obc_N_vVel_mean              =  -6.4445752863430E-08
(PID.TID 0000.0001) %MON obc_N_vVel_sd                =  -5.2853680649808E-29
(PID.TID 0000.0001) %MON obc_N_vVel_Int               =  -4.2534196889864E+00
(PID.TID 0000.0001) // =======================================================
(PID.TID 0000.0001) // End OBCS MONITOR field statistics
(PID.TID 0000.0001) // =======================================================
 cg2d: Sum(rhs),rhsMax =   3.01192167733240E+00  4.53050973822899E+02
(PID.TID 0000.0001)      cg2d_init_res =   1.54216511349456E-06
(PID.TID 0000.0001)      cg2d_iters(min,last) =      -1      68
(PID.TID 0000.0001)      cg2d_last_res =   9.77922166274756E-12
(PID.TID 0000.0001) // =======================================================
(PID.TID 0000.0001) // Begin MONITOR dynamic field statistics
(PID.TID 0000.0001) // =======================================================
(PID.TID 0000.0001) %MON time_tsnumber                =                   418
(PID.TID 0000.0001) %MON time_secondsf                =   4.1800000000000E+04
(PID.TID 0000.0001) %MON dynstat_eta_max              =   5.7966386703535E+00
(PID.TID 0000.0001) %MON dynstat_eta_min              =  -1.4176551292511E+01
(PID.TID 0000.0001) %MON dynstat_eta_mean             =  -2.5269519425810E+00
(PID.TID 0000.0001) %MON dynstat_eta_sd               =   4.9419376886253E+00
(PID.TID 0000.0001) %MON dynstat_eta_del2             =   1.9058075147288E-01
(PID.TID 0000.0001) %MON dynstat_uvel_max             =   1.8681656962762E-03
(PID.TID 0000.0001) %MON dynstat_uvel_min             =  -3.8173149311591E-03
(PID.TID 0000.0001) %MON dynstat_uvel_mean            =  -1.4292289386910E-09
(PID.TID 0000.0001) %MON dynstat_uvel_sd              =   1.4192098847467E-04
(PID.TID 0000.0001) %MON dynstat_uvel_del2            =   2.8448320599893E-07
(PID.TID 0000.0001) %MON dynstat_vvel_max             =   4.1218671603771E-03
(PID.TID 0000.0001) %MON dynstat_vvel_min             =  -1.9659621047499E-03
(PID.TID 0000.0001) %MON dynstat_vvel_mean            =  -5.1384995205405E-08
(PID.TID 0000.0001) %MON dynstat_vvel_sd              =   1.1016429727673E-04
(PID.TID 0000.0001) %MON dynstat_vvel_del2            =   3.0398046245970E-07
(PID.TID 0000.0001) %MON dynstat_wvel_max             =   1.1075279775127E-04
(PID.TID 0000.0001) %MON dynstat_wvel_min             =  -1.3085990659220E-04
(PID.TID 0000.0001) %MON dynstat_wvel_mean            =   1.4753762801986E-10
(PID.TID 0000.0001) %MON dynstat_wvel_sd              =   1.4691144148213E-05
(PID.TID 0000.0001) %MON dynstat_wvel_del2            =   6.7430422727358E-08
(PID.TID 0000.0001) %MON dynstat_theta_max            =   1.2000000000000E+00
(PID.TID 0000.0001) %MON dynstat_theta_min            =  -1.0000000000000E+00
(PID.TID 0000.0001) %MON dynstat_theta_mean           =   5.6541896770536E-01
(PID.TID 0000.0001) %MON dynstat_theta_sd             =   8.4905004944054E-01
(PID.TID 0000.0001) %MON dynstat_theta_del2           =   8.7742820209600E-07
(PID.TID 0000.0001) %MON dynstat_salt_max             =   3.4700000000000E+01
(PID.TID 0000.0001) %MON dynstat_salt_min             =   3.4000000000000E+01
(PID.TID 0000.0001) %MON dynstat_salt_mean            =   3.4498081096713E+01
(PID.TID 0000.0001) %MON dynstat_salt_sd              =   2.7015294888408E-01
(PID.TID 0000.0001) %MON dynstat_salt_del2            =   3.0807019298135E-07
(PID.TID 0000.0001) %MON advcfl_uvel_max              =   3.8173149311591E-04
(PID.TID 0000.0001) %MON advcfl_vvel_max              =   4.1218671603771E-04
(PID.TID 0000.0001) %MON advcfl_wvel_max              =   6.5429953296099E-04
(PID.TID 0000.0001) %MON advcfl_W_hf_max              =   6.5429953296099E-04
(PID.TID 0000.0001) %MON pe_b_mean                    =  -6.8279203707260E-01
(PID.TID 0000.0001) %MON ke_max                       =   5.1199579891346E-06
(PID.TID 0000.0001) %MON ke_mean                      =   1.5949361189344E-08
(PID.TID 0000.0001) %MON ke_vol                       =   4.6182898931566E+12
(PID.TID 0000.0001) // =======================================================
(PID.TID 0000.0001) // End MONITOR dynamic field statistics
(PID.TID 0000.0001) // =======================================================
(PID.TID 0000.0001) // =======================================================
(PID.TID 0000.0001) // Begin OBCS MONITOR field statistics
(PID.TID 0000.0001) // =======================================================
(PID.TID 0000.0001) %MON obc_N_vVel_max               =  -6.3304855674285E-08
(PID.TID 0000.0001) %MON obc_N_vVel_min               =  -6.3304855674285E-08
(PID.TID 0000.0001) %MON obc_N_vVel_mean              =  -6.3304855674285E-08
(PID.TID 0000.0001) %MON obc_N_vVel_sd                =   1.0204393146541E-14
(PID.TID 0000.0001) %MON obc_N_vVel_Int               =  -4.1781204745028E+00
(PID.TID 0000.0001) // =======================================================
(PID.TID 0000.0001) // End OBCS MONITOR field statistics
(PID.TID 0000.0001) // =======================================================
 cg2d: Sum(rhs),rhsMax =   3.01191926513498E+00  4.53050965035979E+02
(PID.TID 0000.0001)      cg2d_init_res =   1.54160233856070E-06
(PID.TID 0000.0001)      cg2d_iters(min,last) =      -1      68
(PID.TID 0000.0001)      cg2d_last_res =   9.79578489780580E-12
(PID.TID 0000.0001) // =======================================================
(PID.TID 0000.0001) // Begin MONITOR dynamic field statistics
(PID.TID 0000.0001) // =======================================================
(PID.TID 0000.0001) %MON time_tsnumber                =                   419
(PID.TID 0000.0001) %MON time_secondsf                =   4.1900000000000E+04
(PID.TID 0000.0001) %MON dynstat_eta_max              =   5.7966413757857E+00
(PID.TID 0000.0001) %MON dynstat_eta_min              =  -1.4176545589534E+01
(PID.TID 0000.0001) %MON dynstat_eta_mean             =  -2.5269498697775E+00
(PID.TID 0000.0001) %MON dynstat_eta_sd               =   4.9419370279600E+00
(PID.TID 0000.0001) %MON dynstat_eta_del2             =   1.9058075378470E-01
(PID.TID 0000.0001) %MON dynstat_uvel_max             =   1.8711241312968E-03
(PID.TID 0000.0001) %MON dynstat_uvel_min             =  -3.8313564324541E-03
(PID.TID 0000.0001) %MON dynstat_uvel_mean            =  -1.4163595227496E-09
(PID.TID 0000.0001) %MON dynstat_uvel_sd              =   1.4228783253304E-04
(PID.TID 0000.0001) %MON dynstat_uvel_del2            =   2.8457363350075E-07
(PID.TID 0000.0001) %MON dynstat_vvel_max             =   4.1344064193138E-03
(PID.TID 0000.0001) %MON dynstat_vvel_min             =  -1.9676696082556E-03
(PID.TID 0000.0001) %MON dynstat_vvel_mean            =  -5.0822930102620E-08
(PID.TID 0000.0001) %MON dynstat_vvel_sd              =   1.1017995760781E-04
(PID.TID 0000.0001) %MON dynstat_vvel_del2            =   3.0387844380558E-07
(PID.TID 0000.0001) %MON dynstat_wvel_max             =   1.1012480557890E-04
(PID.TID 0000.0001) %MON dynstat_wvel_min             =  -1.3146058292564E-04
(PID.TID 0000.0001) %MON dynstat_wvel_mean            =   1.4469050945964E-10
(PID.TID 0000.0001) %MON dynstat_wvel_sd              =   1.4658030464678E-05
(PID.TID 0000.0001) %MON dynstat_wvel_del2            =   6.7314538594261E-08
(PID.TID 0000.0001) %MON dynstat_theta_max            =   1.2000000000000E+00
(PID.TID 0000.0001) %MON dynstat_theta_min            =  -1.0000000000000E+00
(PID.TID 0000.0001) %MON dynstat_theta_mean           =   5.6541874092447E-01
(PID.TID 0000.0001) %MON dynstat_theta_sd             =   8.4904999515743E-01
(PID.TID 0000.0001) %MON dynstat_theta_del2           =   8.7693691374226E-07
(PID.TID 0000.0001) %MON dynstat_salt_max             =   3.4700000000000E+01
(PID.TID 0000.0001) %MON dynstat_salt_min             =   3.4000000000000E+01
(PID.TID 0000.0001) %MON dynstat_salt_mean            =   3.4498081006914E+01
(PID.TID 0000.0001) %MON dynstat_salt_sd              =   2.7015293199234E-01
(PID.TID 0000.0001) %MON dynstat_salt_del2            =   3.0810941797211E-07
(PID.TID 0000.0001) %MON advcfl_uvel_max              =   3.8313564324541E-04
(PID.TID 0000.0001) %MON advcfl_vvel_max              =   4.1344064193138E-04
(PID.TID 0000.0001) %MON advcfl_wvel_max              =   6.5730291462818E-04
(PID.TID 0000.0001) %MON advcfl_W_hf_max              =   6.5730291462818E-04
(PID.TID 0000.0001) %MON pe_b_mean                    =  -6.8279148582554E-01
(PID.TID 0000.0001) %MON ke_max                       =   5.1486054886961E-06
(PID.TID 0000.0001) %MON ke_mean                      =   1.6002236667583E-08
(PID.TID 0000.0001) %MON ke_vol                       =   4.6182899054611E+12
(PID.TID 0000.0001) // =======================================================
(PID.TID 0000.0001) // End MONITOR dynamic field statistics
(PID.TID 0000.0001) // =======================================================
(PID.TID 0000.0001) // =======================================================
(PID.TID 0000.0001) // Begin OBCS MONITOR field statistics
(PID.TID 0000.0001) // =======================================================
(PID.TID 0000.0001) %MON obc_N_vVel_max               =  -6.2546454192919E-08
(PID.TID 0000.0001) %MON obc_N_vVel_min               =  -6.2546454192922E-08
(PID.TID 0000.0001) %MON obc_N_vVel_mean              =  -6.2546454192922E-08
(PID.TID 0000.0001) %MON obc_N_vVel_sd                =  -1.9484864358959E-28
(PID.TID 0000.0001) %MON obc_N_vVel_Int               =  -4.1280659767328E+00
(PID.TID 0000.0001) // =======================================================
(PID.TID 0000.0001) // End OBCS MONITOR field statistics
(PID.TID 0000.0001) // =======================================================
 cg2d: Sum(rhs),rhsMax =   3.01191685147201E+00  4.53050956147681E+02
(PID.TID 0000.0001)      cg2d_init_res =   1.54071576368228E-06
(PID.TID 0000.0001)      cg2d_iters(min,last) =      -1      68
(PID.TID 0000.0001)      cg2d_last_res =   9.81733612646319E-12
(PID.TID 0000.0001) // =======================================================
(PID.TID 0000.0001) // Begin MONITOR dynamic field statistics
(PID.TID 0000.0001) // =======================================================
(PID.TID 0000.0001) %MON time_tsnumber                =                   420
(PID.TID 0000.0001) %MON time_secondsf                =   4.2000000000000E+04
(PID.TID 0000.0001) %MON dynstat_eta_max              =   5.7966440792495E+00
(PID.TID 0000.0001) %MON dynstat_eta_min              =  -1.4176539881320E+01
(PID.TID 0000.0001) %MON dynstat_eta_mean             =  -2.5269477951791E+00
(PID.TID 0000.0001) %MON dynstat_eta_sd               =   4.9419363664141E+00
(PID.TID 0000.0001) %MON dynstat_eta_del2             =   1.9058075611104E-01
(PID.TID 0000.0001) %MON dynstat_uvel_max             =   1.8740829288504E-03
(PID.TID 0000.0001) %MON dynstat_uvel_min             =  -3.8454254693798E-03
(PID.TID 0000.0001) %MON dynstat_uvel_mean            =  -1.4027454449151E-09
(PID.TID 0000.0001) %MON dynstat_uvel_sd              =   1.4265418287136E-04
(PID.TID 0000.0001) %MON dynstat_uvel_del2            =   2.8466879776142E-07
(PID.TID 0000.0001) %MON dynstat_vvel_max             =   4.1469502832330E-03
(PID.TID 0000.0001) %MON dynstat_vvel_min             =  -1.9693359362813E-03
(PID.TID 0000.0001) %MON dynstat_vvel_mean            =  -5.0706747441086E-08
(PID.TID 0000.0001) %MON dynstat_vvel_sd              =   1.1019449738804E-04
(PID.TID 0000.0001) %MON dynstat_vvel_del2            =   3.0377221278294E-07
(PID.TID 0000.0001) %MON dynstat_wvel_max             =   1.0949770440572E-04
(PID.TID 0000.0001) %MON dynstat_wvel_min             =  -1.3206236926401E-04
(PID.TID 0000.0001) %MON dynstat_wvel_mean            =   1.4174471136309E-10
(PID.TID 0000.0001) %MON dynstat_wvel_sd              =   1.4622096958902E-05
(PID.TID 0000.0001) %MON dynstat_wvel_del2            =   6.7180283350559E-08
(PID.TID 0000.0001) %MON dynstat_theta_max            =   1.2000000000000E+00
(PID.TID 0000.0001) %MON dynstat_theta_min            =  -1.0000000000000E+00
(PID.TID 0000.0001) %MON dynstat_theta_mean           =   5.6541851387706E-01
(PID.TID 0000.0001) %MON dynstat_theta_sd             =   8.4904994073918E-01
(PID.TID 0000.0001) %MON dynstat_theta_del2           =   8.7648497624917E-07
(PID.TID 0000.0001) %MON dynstat_salt_max             =   3.4700000000000E+01
(PID.TID 0000.0001) %MON dynstat_salt_min             =   3.4000000000000E+01
(PID.TID 0000.0001) %MON dynstat_salt_mean            =   3.4498080917011E+01
(PID.TID 0000.0001) %MON dynstat_salt_sd              =   2.7015291504458E-01
(PID.TID 0000.0001) %MON dynstat_salt_del2            =   3.0816060147292E-07
(PID.TID 0000.0001) %MON advcfl_uvel_max              =   3.8454254693798E-04
(PID.TID 0000.0001) %MON advcfl_vvel_max              =   4.1469502832330E-04
(PID.TID 0000.0001) %MON advcfl_wvel_max              =   6.6031184632007E-04
(PID.TID 0000.0001) %MON advcfl_W_hf_max              =   6.6031184632007E-04
(PID.TID 0000.0001) %MON pe_b_mean                    =  -6.8279093386665E-01
(PID.TID 0000.0001) %MON ke_max                       =   5.1773458689536E-06
(PID.TID 0000.0001) %MON ke_mean                      =   1.6055051876140E-08
(PID.TID 0000.0001) %MON ke_vol                       =   4.6182899177735E+12
(PID.TID 0000.0001) // =======================================================
(PID.TID 0000.0001) // End MONITOR dynamic field statistics
(PID.TID 0000.0001) // =======================================================
(PID.TID 0000.0001) // =======================================================
(PID.TID 0000.0001) // Begin OBCS MONITOR field statistics
(PID.TID 0000.0001) // =======================================================
(PID.TID 0000.0001) %MON obc_N_vVel_max               =  -6.2188590262113E-08
(PID.TID 0000.0001) %MON obc_N_vVel_min               =  -6.2188590262113E-08
(PID.TID 0000.0001) %MON obc_N_vVel_mean              =  -6.2188590262113E-08
(PID.TID 0000.0001) %MON obc_N_vVel_sd                =   6.8222278918283E-15
(PID.TID 0000.0001) %MON obc_N_vVel_Int               =  -4.1044469572995E+00
(PID.TID 0000.0001) // =======================================================
(PID.TID 0000.0001) // End OBCS MONITOR field statistics
(PID.TID 0000.0001) // =======================================================
 cg2d: Sum(rhs),rhsMax =   3.01191443586890E+00  4.53050947147273E+02
(PID.TID 0000.0001)      cg2d_init_res =   1.53941832233285E-06
(PID.TID 0000.0001)      cg2d_iters(min,last) =      -1      68
(PID.TID 0000.0001)      cg2d_last_res =   9.84558983022288E-12
(PID.TID 0000.0001) // =======================================================
(PID.TID 0000.0001) // Begin MONITOR dynamic field statistics
(PID.TID 0000.0001) // =======================================================
(PID.TID 0000.0001) %MON time_tsnumber                =                   421
(PID.TID 0000.0001) %MON time_secondsf                =   4.2100000000000E+04
(PID.TID 0000.0001) %MON dynstat_eta_max              =   5.7966467815319E+00
(PID.TID 0000.0001) %MON dynstat_eta_min              =  -1.4176534166937E+01
(PID.TID 0000.0001) %MON dynstat_eta_mean             =  -2.5269457183277E+00
(PID.TID 0000.0001) %MON dynstat_eta_sd               =   4.9419357038505E+00
(PID.TID 0000.0001) %MON dynstat_eta_del2             =   1.9058075845274E-01
(PID.TID 0000.0001) %MON dynstat_uvel_max             =   1.8770422168721E-03
(PID.TID 0000.0001) %MON dynstat_uvel_min             =  -3.8595221841913E-03
(PID.TID 0000.0001) %MON dynstat_uvel_mean            =  -1.3891201814407E-09
(PID.TID 0000.0001) %MON dynstat_uvel_sd              =   1.4302003292118E-04
(PID.TID 0000.0001) %MON dynstat_uvel_del2            =   2.8476868885722E-07
(PID.TID 0000.0001) %MON dynstat_vvel_max             =   4.1594988512439E-03
(PID.TID 0000.0001) %MON dynstat_vvel_min             =  -1.9709609927867E-03
(PID.TID 0000.0001) %MON dynstat_vvel_mean            =  -5.1031112187337E-08
(PID.TID 0000.0001) %MON dynstat_vvel_sd              =   1.1020831322528E-04
(PID.TID 0000.0001) %MON dynstat_vvel_del2            =   3.0366106871118E-07
(PID.TID 0000.0001) %MON dynstat_wvel_max             =   1.0887152475599E-04
(PID.TID 0000.0001) %MON dynstat_wvel_min             =  -1.3266526310877E-04
(PID.TID 0000.0001) %MON dynstat_wvel_mean            =   1.3880285014437E-10
(PID.TID 0000.0001) %MON dynstat_wvel_sd              =   1.4583210681436E-05
(PID.TID 0000.0001) %MON dynstat_wvel_del2            =   6.7026661330925E-08
(PID.TID 0000.0001) %MON dynstat_theta_max            =   1.2000000000000E+00
(PID.TID 0000.0001) %MON dynstat_theta_min            =  -1.0000000000000E+00
(PID.TID 0000.0001) %MON dynstat_theta_mean           =   5.6541828656605E-01
(PID.TID 0000.0001) %MON dynstat_theta_sd             =   8.4904988618508E-01
(PID.TID 0000.0001) %MON dynstat_theta_del2           =   8.7607238214858E-07
(PID.TID 0000.0001) %MON dynstat_salt_max             =   3.4700000000000E+01
(PID.TID 0000.0001) %MON dynstat_salt_min             =   3.4000000000000E+01
(PID.TID 0000.0001) %MON dynstat_salt_mean            =   3.4498080827004E+01
(PID.TID 0000.0001) %MON dynstat_salt_sd              =   2.7015289804066E-01
(PID.TID 0000.0001) %MON dynstat_salt_del2            =   3.0822379242954E-07
(PID.TID 0000.0001) %MON advcfl_uvel_max              =   3.8595221841913E-04
(PID.TID 0000.0001) %MON advcfl_vvel_max              =   4.1594988512439E-04
(PID.TID 0000.0001) %MON advcfl_wvel_max              =   6.6332631554387E-04
(PID.TID 0000.0001) %MON advcfl_W_hf_max              =   6.6332631554387E-04
(PID.TID 0000.0001) %MON pe_b_mean                    =  -6.8279038110143E-01
(PID.TID 0000.0001) %MON ke_max                       =   5.2061795443549E-06
(PID.TID 0000.0001) %MON ke_mean                      =   1.6107849019426E-08
(PID.TID 0000.0001) %MON ke_vol                       =   4.6182899300966E+12
(PID.TID 0000.0001) // =======================================================
(PID.TID 0000.0001) // End MONITOR dynamic field statistics
(PID.TID 0000.0001) // =======================================================
(PID.TID 0000.0001) // =======================================================
(PID.TID 0000.0001) // Begin OBCS MONITOR field statistics
(PID.TID 0000.0001) // =======================================================
(PID.TID 0000.0001) %MON obc_N_vVel_max               =  -6.2235472315627E-08
(PID.TID 0000.0001) %MON obc_N_vVel_min               =  -6.2235472315628E-08
(PID.TID 0000.0001) %MON obc_N_vVel_mean              =  -6.2235472315628E-08
(PID.TID 0000.0001) %MON obc_N_vVel_sd                =  -1.5303901561288E-28
(PID.TID 0000.0001) %MON obc_N_vVel_Int               =  -4.1075411728315E+00
(PID.TID 0000.0001) // =======================================================
(PID.TID 0000.0001) // End OBCS MONITOR field statistics
(PID.TID 0000.0001) // =======================================================
 cg2d: Sum(rhs),rhsMax =   3.01191201784749E+00  4.53050938027325E+02
(PID.TID 0000.0001)      cg2d_init_res =   1.53772714726197E-06
(PID.TID 0000.0001)      cg2d_iters(min,last) =      -1      68
(PID.TID 0000.0001)      cg2d_last_res =   9.88638180571960E-12
(PID.TID 0000.0001) // =======================================================
(PID.TID 0000.0001) // Begin MONITOR dynamic field statistics
(PID.TID 0000.0001) // =======================================================
(PID.TID 0000.0001) %MON time_tsnumber                =                   422
(PID.TID 0000.0001) %MON time_secondsf                =   4.2200000000000E+04
(PID.TID 0000.0001) %MON dynstat_eta_max              =   5.7966494833958E+00
(PID.TID 0000.0001) %MON dynstat_eta_min              =  -1.4176528445498E+01
(PID.TID 0000.0001) %MON dynstat_eta_mean             =  -2.5269436387807E+00
(PID.TID 0000.0001) %MON dynstat_eta_sd               =   4.9419350401446E+00
(PID.TID 0000.0001) %MON dynstat_eta_del2             =   1.9058076081033E-01
(PID.TID 0000.0001) %MON dynstat_uvel_max             =   1.8800021221654E-03
(PID.TID 0000.0001) %MON dynstat_uvel_min             =  -3.8736467197271E-03
(PID.TID 0000.0001) %MON dynstat_uvel_mean            =  -1.3762187347547E-09
(PID.TID 0000.0001) %MON dynstat_uvel_sd              =   1.4338537737500E-04
(PID.TID 0000.0001) %MON dynstat_uvel_del2            =   2.8487329543534E-07
(PID.TID 0000.0001) %MON dynstat_vvel_max             =   4.1720522251645E-03
(PID.TID 0000.0001) %MON dynstat_vvel_min             =  -1.9725446754775E-03
(PID.TID 0000.0001) %MON dynstat_vvel_mean            =  -5.1775958274855E-08
(PID.TID 0000.0001) %MON dynstat_vvel_sd              =   1.1022191330968E-04
(PID.TID 0000.0001) %MON dynstat_vvel_del2            =   3.0354551606427E-07
(PID.TID 0000.0001) %MON dynstat_wvel_max             =   1.0824628341972E-04
(PID.TID 0000.0001) %MON dynstat_wvel_min             =  -1.3326926204554E-04
(PID.TID 0000.0001) %MON dynstat_wvel_mean            =   1.3596663249231E-10
(PID.TID 0000.0001) %MON dynstat_wvel_sd              =   1.4541434548696E-05
(PID.TID 0000.0001) %MON dynstat_wvel_del2            =   6.6855216065378E-08
(PID.TID 0000.0001) %MON dynstat_theta_max            =   1.2000000000000E+00
(PID.TID 0000.0001) %MON dynstat_theta_min            =  -1.0000000000000E+00
(PID.TID 0000.0001) %MON dynstat_theta_mean           =   5.6541805899504E-01
(PID.TID 0000.0001) %MON dynstat_theta_sd             =   8.4904983150545E-01
(PID.TID 0000.0001) %MON dynstat_theta_del2           =   8.7569778577564E-07
(PID.TID 0000.0001) %MON dynstat_salt_max             =   3.4700000000000E+01
(PID.TID 0000.0001) %MON dynstat_salt_min             =   3.4000000000000E+01
(PID.TID 0000.0001) %MON dynstat_salt_mean            =   3.4498080736895E+01
(PID.TID 0000.0001) %MON dynstat_salt_sd              =   2.7015288098384E-01
(PID.TID 0000.0001) %MON dynstat_salt_del2            =   3.0829859201976E-07
(PID.TID 0000.0001) %MON advcfl_uvel_max              =   3.8736467197271E-04
(PID.TID 0000.0001) %MON advcfl_vvel_max              =   4.1720522251645E-04
(PID.TID 0000.0001) %MON advcfl_wvel_max              =   6.6634631022771E-04
(PID.TID 0000.0001) %MON advcfl_W_hf_max              =   6.6634631022771E-04
(PID.TID 0000.0001) %MON pe_b_mean                    =  -6.8278982744167E-01
(PID.TID 0000.0001) %MON ke_max                       =   5.2351069372116E-06
(PID.TID 0000.0001) %MON ke_mean                      =   1.6160682793018E-08
(PID.TID 0000.0001) %MON ke_vol                       =   4.6182899424331E+12
(PID.TID 0000.0001) // =======================================================
(PID.TID 0000.0001) // End MONITOR dynamic field statistics
(PID.TID 0000.0001) // =======================================================
(PID.TID 0000.0001) // =======================================================
(PID.TID 0000.0001) // Begin OBCS MONITOR field statistics
(PID.TID 0000.0001) // =======================================================
(PID.TID 0000.0001) %MON obc_N_vVel_max               =  -6.2677694851632E-08
(PID.TID 0000.0001) %MON obc_N_vVel_min               =  -6.2677694851633E-08
(PID.TID 0000.0001) %MON obc_N_vVel_mean              =  -6.2677694851632E-08
(PID.TID 0000.0001) %MON obc_N_vVel_sd                =   8.7475429582505E-15
(PID.TID 0000.0001) %MON obc_N_vVel_Int               =  -4.1367278602077E+00
(PID.TID 0000.0001) // =======================================================
(PID.TID 0000.0001) // End OBCS MONITOR field statistics
(PID.TID 0000.0001) // =======================================================
 cg2d: Sum(rhs),rhsMax =   3.01190959693925E+00  4.53050928783363E+02
(PID.TID 0000.0001)      cg2d_init_res =   1.53567653585217E-06
(PID.TID 0000.0001)      cg2d_iters(min,last) =      -1      68
(PID.TID 0000.0001)      cg2d_last_res =   9.94571713817940E-12
(PID.TID 0000.0001) // =======================================================
(PID.TID 0000.0001) // Begin MONITOR dynamic field statistics
(PID.TID 0000.0001) // =======================================================
(PID.TID 0000.0001) %MON time_tsnumber                =                   423
(PID.TID 0000.0001) %MON time_secondsf                =   4.2300000000000E+04
(PID.TID 0000.0001) %MON dynstat_eta_max              =   5.7966521855418E+00
(PID.TID 0000.0001) %MON dynstat_eta_min              =  -1.4176522716184E+01
(PID.TID 0000.0001) %MON dynstat_eta_mean             =  -2.5269415561201E+00
(PID.TID 0000.0001) %MON dynstat_eta_sd               =   4.9419343751875E+00
(PID.TID 0000.0001) %MON dynstat_eta_del2             =   1.9058076318411E-01
(PID.TID 0000.0001) %MON dynstat_uvel_max             =   1.8829627707504E-03
(PID.TID 0000.0001) %MON dynstat_uvel_min             =  -3.8877992193260E-03
(PID.TID 0000.0001) %MON dynstat_uvel_mean            =  -1.3647221204971E-09
(PID.TID 0000.0001) %MON dynstat_uvel_sd              =   1.4375021233018E-04
(PID.TID 0000.0001) %MON dynstat_uvel_del2            =   2.8498260490928E-07
(PID.TID 0000.0001) %MON dynstat_vvel_max             =   4.1846105097136E-03
(PID.TID 0000.0001) %MON dynstat_vvel_min             =  -1.9740868765474E-03
(PID.TID 0000.0001) %MON dynstat_vvel_mean            =  -5.2907380736689E-08
(PID.TID 0000.0001) %MON dynstat_vvel_sd              =   1.1023591282804E-04
(PID.TID 0000.0001) %MON dynstat_vvel_del2            =   3.0342711706757E-07
(PID.TID 0000.0001) %MON dynstat_wvel_max             =   1.0777855919762E-04
(PID.TID 0000.0001) %MON dynstat_wvel_min             =  -1.3387436360854E-04
(PID.TID 0000.0001) %MON dynstat_wvel_mean            =   1.3333290015079E-10
(PID.TID 0000.0001) %MON dynstat_wvel_sd              =   1.4497013681570E-05
(PID.TID 0000.0001) %MON dynstat_wvel_del2            =   6.6669722184266E-08
(PID.TID 0000.0001) %MON dynstat_theta_max            =   1.2000000000000E+00
(PID.TID 0000.0001) %MON dynstat_theta_min            =  -1.0000000000000E+00
(PID.TID 0000.0001) %MON dynstat_theta_mean           =   5.6541783116766E-01
(PID.TID 0000.0001) %MON dynstat_theta_sd             =   8.4904977671822E-01
(PID.TID 0000.0001) %MON dynstat_theta_del2           =   8.7535877323269E-07
(PID.TID 0000.0001) %MON dynstat_salt_max             =   3.4700000000000E+01
(PID.TID 0000.0001) %MON dynstat_salt_min             =   3.4000000000000E+01
(PID.TID 0000.0001) %MON dynstat_salt_mean            =   3.4498080646683E+01
(PID.TID 0000.0001) %MON dynstat_salt_sd              =   2.7015286387965E-01
(PID.TID 0000.0001) %MON dynstat_salt_del2            =   3.0838431570165E-07
(PID.TID 0000.0001) %MON advcfl_uvel_max              =   3.8877992193260E-04
(PID.TID 0000.0001) %MON advcfl_vvel_max              =   4.1846105097136E-04
(PID.TID 0000.0001) %MON advcfl_wvel_max              =   6.6937181804270E-04
(PID.TID 0000.0001) %MON advcfl_W_hf_max              =   6.6937181804270E-04
(PID.TID 0000.0001) %MON pe_b_mean                    =  -6.8278927280649E-01
(PID.TID 0000.0001) %MON ke_max                       =   5.2641284785095E-06
(PID.TID 0000.0001) %MON ke_mean                      =   1.6213619906177E-08
(PID.TID 0000.0001) %MON ke_vol                       =   4.6182899547856E+12
(PID.TID 0000.0001) // =======================================================
(PID.TID 0000.0001) // End MONITOR dynamic field statistics
(PID.TID 0000.0001) // =======================================================
(PID.TID 0000.0001) // =======================================================
(PID.TID 0000.0001) // Begin OBCS MONITOR field statistics
(PID.TID 0000.0001) // =======================================================
(PID.TID 0000.0001) %MON obc_N_vVel_max               =  -6.3492651007946E-08
(PID.TID 0000.0001) %MON obc_N_vVel_min               =  -6.3492651007946E-08
(PID.TID 0000.0001) %MON obc_N_vVel_mean              =  -6.3492651007946E-08
(PID.TID 0000.0001) %MON obc_N_vVel_sd                =   7.6918507455343E-15
(PID.TID 0000.0001) %MON obc_N_vVel_Int               =  -4.1905149665245E+00
(PID.TID 0000.0001) // =======================================================
(PID.TID 0000.0001) // End OBCS MONITOR field statistics
(PID.TID 0000.0001) // =======================================================
 cg2d: Sum(rhs),rhsMax =   3.01190717269593E+00  4.53050919413857E+02
(PID.TID 0000.0001)      cg2d_init_res =   1.53332010818728E-06
(PID.TID 0000.0001)      cg2d_iters(min,last) =      -1      69
(PID.TID 0000.0001)      cg2d_last_res =   7.73492141695111E-12
(PID.TID 0000.0001) // =======================================================
(PID.TID 0000.0001) // Begin MONITOR dynamic field statistics
(PID.TID 0000.0001) // =======================================================
(PID.TID 0000.0001) %MON time_tsnumber                =                   424
(PID.TID 0000.0001) %MON time_secondsf                =   4.2400000000000E+04
(PID.TID 0000.0001) %MON dynstat_eta_max              =   5.7966548876837E+00
(PID.TID 0000.0001) %MON dynstat_eta_min              =  -1.4176516978474E+01
(PID.TID 0000.0001) %MON dynstat_eta_mean             =  -2.5269394699613E+00
(PID.TID 0000.0001) %MON dynstat_eta_sd               =   4.9419337088869E+00
(PID.TID 0000.0001) %MON dynstat_eta_del2             =   1.9058076557382E-01
(PID.TID 0000.0001) %MON dynstat_uvel_max             =   1.8859242926954E-03
(PID.TID 0000.0001) %MON dynstat_uvel_min             =  -3.9019798231399E-03
(PID.TID 0000.0001) %MON dynstat_uvel_mean            =  -1.3552652205872E-09
(PID.TID 0000.0001) %MON dynstat_uvel_sd              =   1.4411453545350E-04
(PID.TID 0000.0001) %MON dynstat_uvel_del2            =   2.8509660299582E-07
(PID.TID 0000.0001) %MON dynstat_vvel_max             =   4.1971738313837E-03
(PID.TID 0000.0001) %MON dynstat_vvel_min             =  -1.9755875067924E-03
(PID.TID 0000.0001) %MON dynstat_vvel_mean            =  -5.4379452425453E-08
(PID.TID 0000.0001) %MON dynstat_vvel_sd              =   1.1025102263506E-04
(PID.TID 0000.0001) %MON dynstat_vvel_del2            =   3.0330820764895E-07
(PID.TID 0000.0001) %MON dynstat_wvel_max             =   1.0841878626410E-04
(PID.TID 0000.0001) %MON dynstat_wvel_min             =  -1.3448057402078E-04
(PID.TID 0000.0001) %MON dynstat_wvel_mean            =   1.3098495898603E-10
(PID.TID 0000.0001) %MON dynstat_wvel_sd              =   1.4450342301728E-05
(PID.TID 0000.0001) %MON dynstat_wvel_del2            =   6.6475593700839E-08
(PID.TID 0000.0001) %MON dynstat_theta_max            =   1.2000000000000E+00
(PID.TID 0000.0001) %MON dynstat_theta_min            =  -1.0000000000000E+00
(PID.TID 0000.0001) %MON dynstat_theta_mean           =   5.6541760308712E-01
(PID.TID 0000.0001) %MON dynstat_theta_sd             =   8.4904972182414E-01
(PID.TID 0000.0001) %MON dynstat_theta_del2           =   8.7505192965115E-07
(PID.TID 0000.0001) %MON dynstat_salt_max             =   3.4700000000000E+01
(PID.TID 0000.0001) %MON dynstat_salt_min             =   3.4000000000000E+01
(PID.TID 0000.0001) %MON dynstat_salt_mean            =   3.4498080556371E+01
(PID.TID 0000.0001) %MON dynstat_salt_sd              =   2.7015284672834E-01
(PID.TID 0000.0001) %MON dynstat_salt_del2            =   3.0847995899268E-07
(PID.TID 0000.0001) %MON advcfl_uvel_max              =   3.9019798231399E-04
(PID.TID 0000.0001) %MON advcfl_vvel_max              =   4.1971738313837E-04
(PID.TID 0000.0001) %MON advcfl_wvel_max              =   6.7240287010391E-04
(PID.TID 0000.0001) %MON advcfl_W_hf_max              =   6.7240287010391E-04
(PID.TID 0000.0001) %MON pe_b_mean                    =  -6.8278871712354E-01
(PID.TID 0000.0001) %MON ke_max                       =   5.2932446521578E-06
(PID.TID 0000.0001) %MON ke_mean                      =   1.6266737867128E-08
(PID.TID 0000.0001) %MON ke_vol                       =   4.6182899671566E+12
(PID.TID 0000.0001) // =======================================================
(PID.TID 0000.0001) // End MONITOR dynamic field statistics
(PID.TID 0000.0001) // =======================================================
(PID.TID 0000.0001) // =======================================================
(PID.TID 0000.0001) // Begin OBCS MONITOR field statistics
(PID.TID 0000.0001) // =======================================================
(PID.TID 0000.0001) %MON obc_N_vVel_max               =  -6.4645455494789E-08
(PID.TID 0000.0001) %MON obc_N_vVel_min               =  -6.4645455494791E-08
(PID.TID 0000.0001) %MON obc_N_vVel_mean              =  -6.4645455494791E-08
(PID.TID 0000.0001) %MON obc_N_vVel_sd                =  -1.4120610203456E-28
(PID.TID 0000.0001) %MON obc_N_vVel_Int               =  -4.2666000626562E+00
(PID.TID 0000.0001) // =======================================================
(PID.TID 0000.0001) // End OBCS MONITOR field statistics
(PID.TID 0000.0001) // =======================================================
 cg2d: Sum(rhs),rhsMax =   3.01190474471149E+00  4.53050909920137E+02
(PID.TID 0000.0001)      cg2d_init_res =   1.53079144020345E-06
(PID.TID 0000.0001)      cg2d_iters(min,last) =      -1      69
(PID.TID 0000.0001)      cg2d_last_res =   7.82072437899965E-12
(PID.TID 0000.0001) // =======================================================
(PID.TID 0000.0001) // Begin MONITOR dynamic field statistics
(PID.TID 0000.0001) // =======================================================
(PID.TID 0000.0001) %MON time_tsnumber                =                   425
(PID.TID 0000.0001) %MON time_secondsf                =   4.2500000000000E+04
(PID.TID 0000.0001) %MON dynstat_eta_max              =   5.7966575922318E+00
(PID.TID 0000.0001) %MON dynstat_eta_min              =  -1.4176511231571E+01
(PID.TID 0000.0001) %MON dynstat_eta_mean             =  -2.5269373799710E+00
(PID.TID 0000.0001) %MON dynstat_eta_sd               =   4.9419330411751E+00
(PID.TID 0000.0001) %MON dynstat_eta_del2             =   1.9058076797964E-01
(PID.TID 0000.0001) %MON dynstat_uvel_max             =   1.8888867982589E-03
(PID.TID 0000.0001) %MON dynstat_uvel_min             =  -3.9161886853929E-03
(PID.TID 0000.0001) %MON dynstat_uvel_mean            =  -1.3484057342438E-09
(PID.TID 0000.0001) %MON dynstat_uvel_sd              =   1.4447834613156E-04
(PID.TID 0000.0001) %MON dynstat_uvel_del2            =   2.8521527323996E-07
(PID.TID 0000.0001) %MON dynstat_vvel_max             =   4.2097422419149E-03
(PID.TID 0000.0001) %MON dynstat_vvel_min             =  -1.9770463796949E-03
(PID.TID 0000.0001) %MON dynstat_vvel_mean            =  -5.6133992437485E-08
(PID.TID 0000.0001) %MON dynstat_vvel_sd              =   1.1026803243164E-04
(PID.TID 0000.0001) %MON dynstat_vvel_del2            =   3.0319151668575E-07
(PID.TID 0000.0001) %MON dynstat_wvel_max             =   1.0906070315292E-04
(PID.TID 0000.0001) %MON dynstat_wvel_min             =  -1.3508786436572E-04
(PID.TID 0000.0001) %MON dynstat_wvel_mean            =   1.2902590575347E-10
(PID.TID 0000.0001) %MON dynstat_wvel_sd              =   1.4401916091748E-05
(PID.TID 0000.0001) %MON dynstat_wvel_del2            =   6.6279082454191E-08
(PID.TID 0000.0001) %MON dynstat_theta_max            =   1.2000000000000E+00
(PID.TID 0000.0001) %MON dynstat_theta_min            =  -1.0000000000000E+00
(PID.TID 0000.0001) %MON dynstat_theta_mean           =   5.6541737475690E-01
(PID.TID 0000.0001) %MON dynstat_theta_sd             =   8.4904966679752E-01
(PID.TID 0000.0001) %MON dynstat_theta_del2           =   8.7477372570214E-07
(PID.TID 0000.0001) %MON dynstat_salt_max             =   3.4700000000000E+01
(PID.TID 0000.0001) %MON dynstat_salt_min             =   3.4000000000000E+01
(PID.TID 0000.0001) %MON dynstat_salt_mean            =   3.4498080465959E+01
(PID.TID 0000.0001) %MON dynstat_salt_sd              =   2.7015282952173E-01
(PID.TID 0000.0001) %MON dynstat_salt_del2            =   3.0858450220652E-07
(PID.TID 0000.0001) %MON advcfl_uvel_max              =   3.9161886853929E-04
(PID.TID 0000.0001) %MON advcfl_vvel_max              =   4.2097422419149E-04
(PID.TID 0000.0001) %MON advcfl_wvel_max              =   6.7543932182859E-04
(PID.TID 0000.0001) %MON advcfl_W_hf_max              =   6.7543932182859E-04
(PID.TID 0000.0001) %MON pe_b_mean                    =  -6.8278816033402E-01
(PID.TID 0000.0001) %MON ke_max                       =   5.3224557700000E-06
(PID.TID 0000.0001) %MON ke_mean                      =   1.6320123164285E-08
(PID.TID 0000.0001) %MON ke_vol                       =   4.6182899795484E+12
(PID.TID 0000.0001) // =======================================================
(PID.TID 0000.0001) // End MONITOR dynamic field statistics
(PID.TID 0000.0001) // =======================================================
(PID.TID 0000.0001) // =======================================================
(PID.TID 0000.0001) // Begin OBCS MONITOR field statistics
(PID.TID 0000.0001) // =======================================================
(PID.TID 0000.0001) %MON obc_N_vVel_max               =  -6.6091445010907E-08
(PID.TID 0000.0001) %MON obc_N_vVel_min               =  -6.6091445010907E-08
(PID.TID 0000.0001) %MON obc_N_vVel_mean              =  -6.6091445010907E-08
(PID.TID 0000.0001) %MON obc_N_vVel_sd                =  -6.2320011512460E-29
(PID.TID 0000.0001) %MON obc_N_vVel_Int               =  -4.3620353707199E+00
(PID.TID 0000.0001) // =======================================================
(PID.TID 0000.0001) // End OBCS MONITOR field statistics
(PID.TID 0000.0001) // =======================================================
 cg2d: Sum(rhs),rhsMax =   3.01190231264455E+00  4.53050900306096E+02
(PID.TID 0000.0001)      cg2d_init_res =   1.52816703535640E-06
(PID.TID 0000.0001)      cg2d_iters(min,last) =      -1      69
(PID.TID 0000.0001)      cg2d_last_res =   7.90863064496451E-12
(PID.TID 0000.0001) // =======================================================
(PID.TID 0000.0001) // Begin MONITOR dynamic field statistics
(PID.TID 0000.0001) // =======================================================
(PID.TID 0000.0001) %MON time_tsnumber                =                   426
(PID.TID 0000.0001) %MON time_secondsf                =   4.2600000000000E+04
(PID.TID 0000.0001) %MON dynstat_eta_max              =   5.7966602987011E+00
(PID.TID 0000.0001) %MON dynstat_eta_min              =  -1.4176505475178E+01
(PID.TID 0000.0001) %MON dynstat_eta_mean             =  -2.5269352858845E+00
(PID.TID 0000.0001) %MON dynstat_eta_sd               =   4.9419323720074E+00
(PID.TID 0000.0001) %MON dynstat_eta_del2             =   1.9058077040132E-01
(PID.TID 0000.0001) %MON dynstat_uvel_max             =   1.8918504257925E-03
(PID.TID 0000.0001) %MON dynstat_uvel_min             =  -3.9304259420314E-03
(PID.TID 0000.0001) %MON dynstat_uvel_mean            =  -1.3446031360855E-09
(PID.TID 0000.0001) %MON dynstat_uvel_sd              =   1.4484164563582E-04
(PID.TID 0000.0001) %MON dynstat_uvel_del2            =   2.8533859646843E-07
(PID.TID 0000.0001) %MON dynstat_vvel_max             =   4.2223159118362E-03
(PID.TID 0000.0001) %MON dynstat_vvel_min             =  -1.9784634447308E-03
(PID.TID 0000.0001) %MON dynstat_vvel_mean            =  -5.8105289573388E-08
(PID.TID 0000.0001) %MON dynstat_vvel_sd              =   1.1028779048951E-04
(PID.TID 0000.0001) %MON dynstat_vvel_del2            =   3.0307974580193E-07
(PID.TID 0000.0001) %MON dynstat_wvel_max             =   1.0970433992897E-04
(PID.TID 0000.0001) %MON dynstat_wvel_min             =  -1.3569625852493E-04
(PID.TID 0000.0001) %MON dynstat_wvel_mean            =   1.2746921479968E-10
(PID.TID 0000.0001) %MON dynstat_wvel_sd              =   1.4352276944712E-05
(PID.TID 0000.0001) %MON dynstat_wvel_del2            =   6.6086387088334E-08
(PID.TID 0000.0001) %MON dynstat_theta_max            =   1.2000000000000E+00
(PID.TID 0000.0001) %MON dynstat_theta_min            =  -1.0000000000000E+00
(PID.TID 0000.0001) %MON dynstat_theta_mean           =   5.6541714618094E-01
(PID.TID 0000.0001) %MON dynstat_theta_sd             =   8.4904961162178E-01
(PID.TID 0000.0001) %MON dynstat_theta_del2           =   8.7452065322546E-07
(PID.TID 0000.0001) %MON dynstat_salt_max             =   3.4700000000000E+01
(PID.TID 0000.0001) %MON dynstat_salt_min             =   3.4000000000000E+01
(PID.TID 0000.0001) %MON dynstat_salt_mean            =   3.4498080375448E+01
(PID.TID 0000.0001) %MON dynstat_salt_sd              =   2.7015281225454E-01
(PID.TID 0000.0001) %MON dynstat_salt_del2            =   3.0869693617219E-07
(PID.TID 0000.0001) %MON advcfl_uvel_max              =   3.9304259420314E-04
(PID.TID 0000.0001) %MON advcfl_vvel_max              =   4.2223159118362E-04
(PID.TID 0000.0001) %MON advcfl_wvel_max              =   6.7848129262464E-04
(PID.TID 0000.0001) %MON advcfl_W_hf_max              =   6.7848129262464E-04
(PID.TID 0000.0001) %MON pe_b_mean                    =  -6.8278760239395E-01
(PID.TID 0000.0001) %MON ke_max                       =   5.3517624232291E-06
(PID.TID 0000.0001) %MON ke_mean                      =   1.6373869074757E-08
(PID.TID 0000.0001) %MON ke_vol                       =   4.6182899919630E+12
(PID.TID 0000.0001) // =======================================================
(PID.TID 0000.0001) // End MONITOR dynamic field statistics
(PID.TID 0000.0001) // =======================================================
(PID.TID 0000.0001) // =======================================================
(PID.TID 0000.0001) // Begin OBCS MONITOR field statistics
(PID.TID 0000.0001) // =======================================================
(PID.TID 0000.0001) %MON obc_N_vVel_max               =  -6.7771939630769E-08
(PID.TID 0000.0001) %MON obc_N_vVel_min               =  -6.7771939630771E-08
(PID.TID 0000.0001) %MON obc_N_vVel_mean              =  -6.7771939630769E-08
(PID.TID 0000.0001) %MON obc_N_vVel_sd                =   1.1234667099445E-14
(PID.TID 0000.0001) %MON obc_N_vVel_Int               =  -4.4729480156308E+00
(PID.TID 0000.0001) // =======================================================
(PID.TID 0000.0001) // End OBCS MONITOR field statistics
(PID.TID 0000.0001) // =======================================================
 cg2d: Sum(rhs),rhsMax =   3.01189987621982E+00  4.53050890577653E+02
(PID.TID 0000.0001)      cg2d_init_res =   1.52561531109576E-06
(PID.TID 0000.0001)      cg2d_iters(min,last) =      -1      69
(PID.TID 0000.0001)      cg2d_last_res =   7.99257805635233E-12
(PID.TID 0000.0001) // =======================================================
(PID.TID 0000.0001) // Begin MONITOR dynamic field statistics
(PID.TID 0000.0001) // =======================================================
(PID.TID 0000.0001) %MON time_tsnumber                =                   427
(PID.TID 0000.0001) %MON time_secondsf                =   4.2700000000000E+04
(PID.TID 0000.0001) %MON dynstat_eta_max              =   5.7966630074531E+00
(PID.TID 0000.0001) %MON dynstat_eta_min              =  -1.4176499709055E+01
(PID.TID 0000.0001) %MON dynstat_eta_mean             =  -2.5269331875039E+00
(PID.TID 0000.0001) %MON dynstat_eta_sd               =   4.9419317013755E+00
(PID.TID 0000.0001) %MON dynstat_eta_del2             =   1.9058077283907E-01
(PID.TID 0000.0001) %MON dynstat_uvel_max             =   1.8948152926459E-03
(PID.TID 0000.0001) %MON dynstat_uvel_min             =  -3.9446917387300E-03
(PID.TID 0000.0001) %MON dynstat_uvel_mean            =  -1.3441950416401E-09
(PID.TID 0000.0001) %MON dynstat_uvel_sd              =   1.4520443732624E-04
(PID.TID 0000.0001) %MON dynstat_uvel_del2            =   2.8546655113900E-07
(PID.TID 0000.0001) %MON dynstat_vvel_max             =   4.2348949330990E-03
(PID.TID 0000.0001) %MON dynstat_vvel_min             =  -1.9798385606702E-03
(PID.TID 0000.0001) %MON dynstat_vvel_mean            =  -6.0221451447001E-08
(PID.TID 0000.0001) %MON dynstat_vvel_sd              =   1.1031118220598E-04
(PID.TID 0000.0001) %MON dynstat_vvel_del2            =   3.0297516987276E-07
(PID.TID 0000.0001) %MON dynstat_wvel_max             =   1.1034968485217E-04
(PID.TID 0000.0001) %MON dynstat_wvel_min             =  -1.3630574566619E-04
(PID.TID 0000.0001) %MON dynstat_wvel_mean            =   1.2640220828013E-10
(PID.TID 0000.0001) %MON dynstat_wvel_sd              =   1.4301958850889E-05
(PID.TID 0000.0001) %MON dynstat_wvel_del2            =   6.5902778474635E-08
(PID.TID 0000.0001) %MON dynstat_theta_max            =   1.2000000000000E+00
(PID.TID 0000.0001) %MON dynstat_theta_min            =  -1.0000000000000E+00
(PID.TID 0000.0001) %MON dynstat_theta_mean           =   5.6541691736355E-01
(PID.TID 0000.0001) %MON dynstat_theta_sd             =   8.4904955628102E-01
(PID.TID 0000.0001) %MON dynstat_theta_del2           =   8.7428936308088E-07
(PID.TID 0000.0001) %MON dynstat_salt_max             =   3.4700000000000E+01
(PID.TID 0000.0001) %MON dynstat_salt_min             =   3.4000000000000E+01
(PID.TID 0000.0001) %MON dynstat_salt_mean            =   3.4498080284840E+01
(PID.TID 0000.0001) %MON dynstat_salt_sd              =   2.7015279492162E-01
(PID.TID 0000.0001) %MON dynstat_salt_del2            =   3.0881626290380E-07
(PID.TID 0000.0001) %MON advcfl_uvel_max              =   3.9446917387300E-04
(PID.TID 0000.0001) %MON advcfl_vvel_max              =   4.2348949330990E-04
(PID.TID 0000.0001) %MON advcfl_wvel_max              =   6.8152872833096E-04
(PID.TID 0000.0001) %MON advcfl_W_hf_max              =   6.8152872833096E-04
(PID.TID 0000.0001) %MON pe_b_mean                    =  -6.8278704327627E-01
(PID.TID 0000.0001) %MON ke_max                       =   5.3811650219082E-06
(PID.TID 0000.0001) %MON ke_mean                      =   1.6428073355984E-08
(PID.TID 0000.0001) %MON ke_vol                       =   4.6182900044018E+12
(PID.TID 0000.0001) // =======================================================
(PID.TID 0000.0001) // End MONITOR dynamic field statistics
(PID.TID 0000.0001) // =======================================================
(PID.TID 0000.0001) // =======================================================
(PID.TID 0000.0001) // Begin OBCS MONITOR field statistics
(PID.TID 0000.0001) // =======================================================
(PID.TID 0000.0001) %MON obc_N_vVel_max               =  -6.9629069809042E-08
(PID.TID 0000.0001) %MON obc_N_vVel_min               =  -6.9629069809042E-08
(PID.TID 0000.0001) %MON obc_N_vVel_mean              =  -6.9629069809042E-08
(PID.TID 0000.0001) %MON obc_N_vVel_sd                =  -6.3108872417681E-30
(PID.TID 0000.0001) %MON obc_N_vVel_Int               =  -4.5955186073968E+00
(PID.TID 0000.0001) // =======================================================
(PID.TID 0000.0001) // End OBCS MONITOR field statistics
(PID.TID 0000.0001) // =======================================================
 cg2d: Sum(rhs),rhsMax =   3.01189743523613E+00  4.53050880743090E+02
(PID.TID 0000.0001)      cg2d_init_res =   1.52322179440980E-06
(PID.TID 0000.0001)      cg2d_iters(min,last) =      -1      69
(PID.TID 0000.0001)      cg2d_last_res =   8.06511152375558E-12
(PID.TID 0000.0001) // =======================================================
(PID.TID 0000.0001) // Begin MONITOR dynamic field statistics
(PID.TID 0000.0001) // =======================================================
(PID.TID 0000.0001) %MON time_tsnumber                =                   428
(PID.TID 0000.0001) %MON time_secondsf                =   4.2800000000000E+04
(PID.TID 0000.0001) %MON dynstat_eta_max              =   5.7966657187427E+00
(PID.TID 0000.0001) %MON dynstat_eta_min              =  -1.4176493933114E+01
(PID.TID 0000.0001) %MON dynstat_eta_mean             =  -2.5269310847066E+00
(PID.TID 0000.0001) %MON dynstat_eta_sd               =   4.9419310293015E+00
(PID.TID 0000.0001) %MON dynstat_eta_del2             =   1.9058077529316E-01
(PID.TID 0000.0001) %MON dynstat_uvel_max             =   1.8977815209364E-03
(PID.TID 0000.0001) %MON dynstat_uvel_min             =  -3.9589862196925E-03
(PID.TID 0000.0001) %MON dynstat_uvel_mean            =  -1.3474222909468E-09
(PID.TID 0000.0001) %MON dynstat_uvel_sd              =   1.4556672681639E-04
(PID.TID 0000.0001) %MON dynstat_uvel_del2            =   2.8559911260269E-07
(PID.TID 0000.0001) %MON dynstat_vvel_max             =   4.2474794196301E-03
(PID.TID 0000.0001) %MON dynstat_vvel_min             =  -1.9811716055793E-03
(PID.TID 0000.0001) %MON dynstat_vvel_mean            =  -6.2406326309704E-08
(PID.TID 0000.0001) %MON dynstat_vvel_sd              =   1.1033910935098E-04
(PID.TID 0000.0001) %MON dynstat_vvel_del2            =   3.0287930812932E-07
(PID.TID 0000.0001) %MON dynstat_wvel_max             =   1.1099673623456E-04
(PID.TID 0000.0001) %MON dynstat_wvel_min             =  -1.3691632319379E-04
(PID.TID 0000.0001) %MON dynstat_wvel_mean            =   1.2585055051753E-10
(PID.TID 0000.0001) %MON dynstat_wvel_sd              =   1.4251441294834E-05
(PID.TID 0000.0001) %MON dynstat_wvel_del2            =   6.5731868379373E-08
(PID.TID 0000.0001) %MON dynstat_theta_max            =   1.2000000000000E+00
(PID.TID 0000.0001) %MON dynstat_theta_min            =  -1.0000000000000E+00
(PID.TID 0000.0001) %MON dynstat_theta_mean           =   5.6541668830906E-01
(PID.TID 0000.0001) %MON dynstat_theta_sd             =   8.4904950072832E-01
(PID.TID 0000.0001) %MON dynstat_theta_del2           =   8.7407717916779E-07
(PID.TID 0000.0001) %MON dynstat_salt_max             =   3.4700000000000E+01
(PID.TID 0000.0001) %MON dynstat_salt_min             =   3.4000000000000E+01
(PID.TID 0000.0001) %MON dynstat_salt_mean            =   3.4498080194137E+01
(PID.TID 0000.0001) %MON dynstat_salt_sd              =   2.7015277750827E-01
(PID.TID 0000.0001) %MON dynstat_salt_del2            =   3.0894170256241E-07
(PID.TID 0000.0001) %MON advcfl_uvel_max              =   3.9589862196925E-04
(PID.TID 0000.0001) %MON advcfl_vvel_max              =   4.2474794196301E-04
(PID.TID 0000.0001) %MON advcfl_wvel_max              =   6.8458161596894E-04
(PID.TID 0000.0001) %MON advcfl_W_hf_max              =   6.8458161596894E-04
(PID.TID 0000.0001) %MON pe_b_mean                    =  -6.8278648297032E-01
(PID.TID 0000.0001) %MON ke_max                       =   5.4106640303473E-06
(PID.TID 0000.0001) %MON ke_mean                      =   1.6482836015316E-08
(PID.TID 0000.0001) %MON ke_vol                       =   4.6182900168662E+12
(PID.TID 0000.0001) // =======================================================
(PID.TID 0000.0001) // End MONITOR dynamic field statistics
(PID.TID 0000.0001) // =======================================================
(PID.TID 0000.0001) // =======================================================
(PID.TID 0000.0001) // Begin OBCS MONITOR field statistics
(PID.TID 0000.0001) // =======================================================
(PID.TID 0000.0001) %MON obc_N_vVel_max               =  -7.1594536432597E-08
(PID.TID 0000.0001) %MON obc_N_vVel_min               =  -7.1594536432599E-08
(PID.TID 0000.0001) %MON obc_N_vVel_mean              =  -7.1594536432597E-08
(PID.TID 0000.0001) %MON obc_N_vVel_sd                =   1.7381994324578E-14
(PID.TID 0000.0001) %MON obc_N_vVel_Int               =  -4.7252394045514E+00
(PID.TID 0000.0001) // =======================================================
(PID.TID 0000.0001) // End OBCS MONITOR field statistics
(PID.TID 0000.0001) // =======================================================
 cg2d: Sum(rhs),rhsMax =   3.01189498957372E+00  4.53050870812167E+02
(PID.TID 0000.0001)      cg2d_init_res =   1.52103344960387E-06
(PID.TID 0000.0001)      cg2d_iters(min,last) =      -1      69
(PID.TID 0000.0001)      cg2d_last_res =   8.12298264424823E-12
(PID.TID 0000.0001) // =======================================================
(PID.TID 0000.0001) // Begin MONITOR dynamic field statistics
(PID.TID 0000.0001) // =======================================================
(PID.TID 0000.0001) %MON time_tsnumber                =                   429
(PID.TID 0000.0001) %MON time_secondsf                =   4.2900000000000E+04
(PID.TID 0000.0001) %MON dynstat_eta_max              =   5.7966684326921E+00
(PID.TID 0000.0001) %MON dynstat_eta_min              =  -1.4176488147449E+01
(PID.TID 0000.0001) %MON dynstat_eta_mean             =  -2.5269289774466E+00
(PID.TID 0000.0001) %MON dynstat_eta_sd               =   4.9419303558332E+00
(PID.TID 0000.0001) %MON dynstat_eta_del2             =   1.9058077776375E-01
(PID.TID 0000.0001) %MON dynstat_uvel_max             =   1.9007492314973E-03
(PID.TID 0000.0001) %MON dynstat_uvel_min             =  -3.9733095294867E-03
(PID.TID 0000.0001) %MON dynstat_uvel_mean            =  -1.3543753941615E-09
(PID.TID 0000.0001) %MON dynstat_uvel_sd              =   1.4592852214715E-04
(PID.TID 0000.0001) %MON dynstat_uvel_del2            =   2.8573625348657E-07
(PID.TID 0000.0001) %MON dynstat_vvel_max             =   4.2600694851775E-03
(PID.TID 0000.0001) %MON dynstat_vvel_min             =  -1.9824624610543E-03
(PID.TID 0000.0001) %MON dynstat_vvel_mean            =  -6.4582428157250E-08
(PID.TID 0000.0001) %MON dynstat_vvel_sd              =   1.1037247164529E-04
(PID.TID 0000.0001) %MON dynstat_vvel_del2            =   3.0279271070163E-07
(PID.TID 0000.0001) %MON dynstat_wvel_max             =   1.1164549304606E-04
(PID.TID 0000.0001) %MON dynstat_wvel_min             =  -1.3752798849578E-04
(PID.TID 0000.0001) %MON dynstat_wvel_mean            =   1.2582368735541E-10
(PID.TID 0000.0001) %MON dynstat_wvel_sd              =   1.4201116979046E-05
(PID.TID 0000.0001) %MON dynstat_wvel_del2            =   6.5575114709846E-08
(PID.TID 0000.0001) %MON dynstat_theta_max            =   1.2000000000000E+00
(PID.TID 0000.0001) %MON dynstat_theta_min            =  -1.0000000000000E+00
(PID.TID 0000.0001) %MON dynstat_theta_mean           =   5.6541645902164E-01
(PID.TID 0000.0001) %MON dynstat_theta_sd             =   8.4904944496779E-01
(PID.TID 0000.0001) %MON dynstat_theta_del2           =   8.7388208314637E-07
(PID.TID 0000.0001) %MON dynstat_salt_max             =   3.4700000000000E+01
(PID.TID 0000.0001) %MON dynstat_salt_min             =   3.4000000000000E+01
(PID.TID 0000.0001) %MON dynstat_salt_mean            =   3.4498080103339E+01
(PID.TID 0000.0001) %MON dynstat_salt_sd              =   2.7015276001568E-01
(PID.TID 0000.0001) %MON dynstat_salt_del2            =   3.0907267169465E-07
(PID.TID 0000.0001) %MON advcfl_uvel_max              =   3.9733095294867E-04
(PID.TID 0000.0001) %MON advcfl_vvel_max              =   4.2600694851775E-04
(PID.TID 0000.0001) %MON advcfl_wvel_max              =   6.8763994247889E-04
(PID.TID 0000.0001) %MON advcfl_W_hf_max              =   6.8763994247889E-04
(PID.TID 0000.0001) %MON pe_b_mean                    =  -6.8278592148132E-01
(PID.TID 0000.0001) %MON ke_max                       =   5.4402599148946E-06
(PID.TID 0000.0001) %MON ke_mean                      =   1.6538257344677E-08
(PID.TID 0000.0001) %MON ke_vol                       =   4.6182900293568E+12
(PID.TID 0000.0001) // =======================================================
(PID.TID 0000.0001) // End MONITOR dynamic field statistics
(PID.TID 0000.0001) // =======================================================
(PID.TID 0000.0001) // =======================================================
(PID.TID 0000.0001) // Begin OBCS MONITOR field statistics
(PID.TID 0000.0001) // =======================================================
(PID.TID 0000.0001) %MON obc_N_vVel_max               =  -7.3597896019373E-08
(PID.TID 0000.0001) %MON obc_N_vVel_min               =  -7.3597896019375E-08
(PID.TID 0000.0001) %MON obc_N_vVel_mean              =  -7.3597896019373E-08
(PID.TID 0000.0001) %MON obc_N_vVel_sd                =   1.7540118387177E-14
(PID.TID 0000.0001) %MON obc_N_vVel_Int               =  -4.8574611372786E+00
(PID.TID 0000.0001) // =======================================================
(PID.TID 0000.0001) // End OBCS MONITOR field statistics
(PID.TID 0000.0001) // =======================================================
 cg2d: Sum(rhs),rhsMax =   3.01189253920084E+00  4.53050860795905E+02
(PID.TID 0000.0001)      cg2d_init_res =   1.51909198850670E-06
(PID.TID 0000.0001)      cg2d_iters(min,last) =      -1      69
(PID.TID 0000.0001)      cg2d_last_res =   8.17023445303057E-12
(PID.TID 0000.0001) // =======================================================
(PID.TID 0000.0001) // Begin MONITOR dynamic field statistics
(PID.TID 0000.0001) // =======================================================
(PID.TID 0000.0001) %MON time_tsnumber                =                   430
(PID.TID 0000.0001) %MON time_secondsf                =   4.3000000000000E+04
(PID.TID 0000.0001) %MON dynstat_eta_max              =   5.7966711493149E+00
(PID.TID 0000.0001) %MON dynstat_eta_min              =  -1.4176482352350E+01
(PID.TID 0000.0001) %MON dynstat_eta_mean             =  -2.5269268657587E+00
(PID.TID 0000.0001) %MON dynstat_eta_sd               =   4.9419296810438E+00
(PID.TID 0000.0001) %MON dynstat_eta_del2             =   1.9058078025109E-01
(PID.TID 0000.0001) %MON dynstat_uvel_max             =   1.9037185442379E-03
(PID.TID 0000.0001) %MON dynstat_uvel_min             =  -3.9876618118306E-03
(PID.TID 0000.0001) %MON dynstat_uvel_mean            =  -1.3650005378109E-09
(PID.TID 0000.0001) %MON dynstat_uvel_sd              =   1.4628983397750E-04
(PID.TID 0000.0001) %MON dynstat_uvel_del2            =   2.8587794376370E-07
(PID.TID 0000.0001) %MON dynstat_vvel_max             =   4.2726652430647E-03
(PID.TID 0000.0001) %MON dynstat_vvel_min             =  -1.9837110115546E-03
(PID.TID 0000.0001) %MON dynstat_vvel_mean            =  -6.6673625342018E-08
(PID.TID 0000.0001) %MON dynstat_vvel_sd              =   1.1041215178927E-04
(PID.TID 0000.0001) %MON dynstat_vvel_del2            =   3.0271488844880E-07
(PID.TID 0000.0001) %MON dynstat_wvel_max             =   1.1229595414412E-04
(PID.TID 0000.0001) %MON dynstat_wvel_min             =  -1.3814073877723E-04
(PID.TID 0000.0001) %MON dynstat_wvel_mean            =   1.2631646058715E-10
(PID.TID 0000.0001) %MON dynstat_wvel_sd              =   1.4151278137459E-05
(PID.TID 0000.0001) %MON dynstat_wvel_del2            =   6.5431633101899E-08
(PID.TID 0000.0001) %MON dynstat_theta_max            =   1.2000000000000E+00
(PID.TID 0000.0001) %MON dynstat_theta_min            =  -1.0000000000000E+00
(PID.TID 0000.0001) %MON dynstat_theta_mean           =   5.6541622950582E-01
(PID.TID 0000.0001) %MON dynstat_theta_sd             =   8.4904938902608E-01
(PID.TID 0000.0001) %MON dynstat_theta_del2           =   8.7370291665395E-07
(PID.TID 0000.0001) %MON dynstat_salt_max             =   3.4700000000000E+01
(PID.TID 0000.0001) %MON dynstat_salt_min             =   3.4000000000000E+01
(PID.TID 0000.0001) %MON dynstat_salt_mean            =   3.4498080012448E+01
(PID.TID 0000.0001) %MON dynstat_salt_sd              =   2.7015274245237E-01
(PID.TID 0000.0001) %MON dynstat_salt_del2            =   3.0920885329840E-07
(PID.TID 0000.0001) %MON advcfl_uvel_max              =   3.9876618118306E-04
(PID.TID 0000.0001) %MON advcfl_vvel_max              =   4.2726652430647E-04
(PID.TID 0000.0001) %MON advcfl_wvel_max              =   6.9070369388613E-04
(PID.TID 0000.0001) %MON advcfl_W_hf_max              =   6.9070369388613E-04
(PID.TID 0000.0001) %MON pe_b_mean                    =  -6.8278535883136E-01
(PID.TID 0000.0001) %MON ke_max                       =   5.4699531437421E-06
(PID.TID 0000.0001) %MON ke_mean                      =   1.6594436343854E-08
(PID.TID 0000.0001) %MON ke_vol                       =   4.6182900418740E+12
(PID.TID 0000.0001) // =======================================================
(PID.TID 0000.0001) // End MONITOR dynamic field statistics
(PID.TID 0000.0001) // =======================================================
(PID.TID 0000.0001) // =======================================================
(PID.TID 0000.0001) // Begin OBCS MONITOR field statistics
(PID.TID 0000.0001) // =======================================================
(PID.TID 0000.0001) %MON obc_N_vVel_max               =  -7.5568949350792E-08
(PID.TID 0000.0001) %MON obc_N_vVel_min               =  -7.5568949350794E-08
(PID.TID 0000.0001) %MON obc_N_vVel_mean              =  -7.5568949350792E-08
(PID.TID 0000.0001) %MON obc_N_vVel_sd                =   2.2079765384319E-14
(PID.TID 0000.0001) %MON obc_N_vVel_Int               =  -4.9875506571523E+00
(PID.TID 0000.0001) // =======================================================
(PID.TID 0000.0001) // End OBCS MONITOR field statistics
(PID.TID 0000.0001) // =======================================================
 cg2d: Sum(rhs),rhsMax =   3.01189008416867E+00  4.53050850706206E+02
(PID.TID 0000.0001)      cg2d_init_res =   1.51738210590812E-06
(PID.TID 0000.0001)      cg2d_iters(min,last) =      -1      69
(PID.TID 0000.0001)      cg2d_last_res =   8.20767911954210E-12
(PID.TID 0000.0001) // =======================================================
(PID.TID 0000.0001) // Begin MONITOR dynamic field statistics
(PID.TID 0000.0001) // =======================================================
(PID.TID 0000.0001) %MON time_tsnumber                =                   431
(PID.TID 0000.0001) %MON time_secondsf                =   4.3100000000000E+04
(PID.TID 0000.0001) %MON dynstat_eta_max              =   5.7966738684850E+00
(PID.TID 0000.0001) %MON dynstat_eta_min              =  -1.4176476548259E+01
(PID.TID 0000.0001) %MON dynstat_eta_mean             =  -2.5269247497522E+00
(PID.TID 0000.0001) %MON dynstat_eta_sd               =   4.9419290050261E+00
(PID.TID 0000.0001) %MON dynstat_eta_del2             =   1.9058078275526E-01
(PID.TID 0000.0001) %MON dynstat_uvel_max             =   1.9066895780711E-03
(PID.TID 0000.0001) %MON dynstat_uvel_min             =  -4.0020432096632E-03
(PID.TID 0000.0001) %MON dynstat_uvel_mean            =  -1.3791491493960E-09
(PID.TID 0000.0001) %MON dynstat_uvel_sd              =   1.4665067574265E-04
(PID.TID 0000.0001) %MON dynstat_uvel_del2            =   2.8602415099541E-07
(PID.TID 0000.0001) %MON dynstat_vvel_max             =   4.2852668059257E-03
(PID.TID 0000.0001) %MON dynstat_vvel_min             =  -1.9849171457436E-03
(PID.TID 0000.0001) %MON dynstat_vvel_mean            =  -6.8607640424466E-08
(PID.TID 0000.0001) %MON dynstat_vvel_sd              =   1.1045900432142E-04
(PID.TID 0000.0001) %MON dynstat_vvel_del2            =   3.0264439394225E-07
(PID.TID 0000.0001) %MON dynstat_wvel_max             =   1.1294811977687E-04
(PID.TID 0000.0001) %MON dynstat_wvel_min             =  -1.3875457134675E-04
(PID.TID 0000.0001) %MON dynstat_wvel_mean            =   1.2730895119951E-10
(PID.TID 0000.0001) %MON dynstat_wvel_sd              =   1.4102123188536E-05
(PID.TID 0000.0001) %MON dynstat_wvel_del2            =   6.5298338411261E-08
(PID.TID 0000.0001) %MON dynstat_theta_max            =   1.2000000000000E+00
(PID.TID 0000.0001) %MON dynstat_theta_min            =  -1.0000000000000E+00
(PID.TID 0000.0001) %MON dynstat_theta_mean           =   5.6541599976605E-01
(PID.TID 0000.0001) %MON dynstat_theta_sd             =   8.4904933292400E-01
(PID.TID 0000.0001) %MON dynstat_theta_del2           =   8.7353944904938E-07
(PID.TID 0000.0001) %MON dynstat_salt_max             =   3.4700000000000E+01
(PID.TID 0000.0001) %MON dynstat_salt_min             =   3.4000000000000E+01
(PID.TID 0000.0001) %MON dynstat_salt_mean            =   3.4498079921465E+01
(PID.TID 0000.0001) %MON dynstat_salt_sd              =   2.7015272482492E-01
(PID.TID 0000.0001) %MON dynstat_salt_del2            =   3.0935015792157E-07
(PID.TID 0000.0001) %MON advcfl_uvel_max              =   4.0020432096632E-04
(PID.TID 0000.0001) %MON advcfl_vvel_max              =   4.2852668059257E-04
(PID.TID 0000.0001) %MON advcfl_wvel_max              =   6.9377285673373E-04
(PID.TID 0000.0001) %MON advcfl_W_hf_max              =   6.9377285673373E-04
(PID.TID 0000.0001) %MON pe_b_mean                    =  -6.8278479505712E-01
(PID.TID 0000.0001) %MON ke_max                       =   5.4997441862733E-06
(PID.TID 0000.0001) %MON ke_mean                      =   1.6651469566502E-08
(PID.TID 0000.0001) %MON ke_vol                       =   4.6182900544174E+12
(PID.TID 0000.0001) // =======================================================
(PID.TID 0000.0001) // End MONITOR dynamic field statistics
(PID.TID 0000.0001) // =======================================================
(PID.TID 0000.0001) // =======================================================
(PID.TID 0000.0001) // Begin OBCS MONITOR field statistics
(PID.TID 0000.0001) // =======================================================
(PID.TID 0000.0001) %MON obc_N_vVel_max               =  -7.7439735672802E-08
(PID.TID 0000.0001) %MON obc_N_vVel_min               =  -7.7439735672804E-08
(PID.TID 0000.0001) %MON obc_N_vVel_mean              =  -7.7439735672802E-08
(PID.TID 0000.0001) %MON obc_N_vVel_sd                =   8.7475429582505E-15
(PID.TID 0000.0001) %MON obc_N_vVel_Int               =  -5.1110225544050E+00
(PID.TID 0000.0001) // =======================================================
(PID.TID 0000.0001) // End OBCS MONITOR field statistics
(PID.TID 0000.0001) // =======================================================
 cg2d: Sum(rhs),rhsMax =   3.01188762460834E+00  4.53050840555525E+02
(PID.TID 0000.0001)      cg2d_init_res =   1.51583501819085E-06
(PID.TID 0000.0001)      cg2d_iters(min,last) =      -1      69
(PID.TID 0000.0001)      cg2d_last_res =   8.23604583154062E-12
(PID.TID 0000.0001) // =======================================================
(PID.TID 0000.0001) // Begin MONITOR dynamic field statistics
(PID.TID 0000.0001) // =======================================================
(PID.TID 0000.0001) %MON time_tsnumber                =                   432
(PID.TID 0000.0001) %MON time_secondsf                =   4.3200000000000E+04
(PID.TID 0000.0001) %MON dynstat_eta_max              =   5.7966765899765E+00
(PID.TID 0000.0001) %MON dynstat_eta_min              =  -1.4176470735757E+01
(PID.TID 0000.0001) %MON dynstat_eta_mean             =  -2.5269226296067E+00
(PID.TID 0000.0001) %MON dynstat_eta_sd               =   4.9419283278912E+00
(PID.TID 0000.0001) %MON dynstat_eta_del2             =   1.9058078527632E-01
(PID.TID 0000.0001) %MON dynstat_uvel_max             =   1.9096624513786E-03
(PID.TID 0000.0001) %MON dynstat_uvel_min             =  -4.0164538654777E-03
(PID.TID 0000.0001) %MON dynstat_uvel_mean            =  -1.3965720352822E-09
(PID.TID 0000.0001) %MON dynstat_uvel_sd              =   1.4701106380929E-04
(PID.TID 0000.0001) %MON dynstat_uvel_del2            =   2.8617484075662E-07
(PID.TID 0000.0001) %MON dynstat_vvel_max             =   4.2978742859587E-03
(PID.TID 0000.0001) %MON dynstat_vvel_min             =  -1.9860807579244E-03
(PID.TID 0000.0001) %MON dynstat_vvel_mean            =  -7.0318361475197E-08
(PID.TID 0000.0001) %MON dynstat_vvel_sd              =   1.1051384795384E-04
(PID.TID 0000.0001) %MON dynstat_vvel_del2            =   3.0257904187281E-07
(PID.TID 0000.0001) %MON dynstat_wvel_max             =   1.1360199085852E-04
(PID.TID 0000.0001) %MON dynstat_wvel_min             =  -1.3936948358058E-04
(PID.TID 0000.0001) %MON dynstat_wvel_mean            =   1.2876450022815E-10
(PID.TID 0000.0001) %MON dynstat_wvel_sd              =   1.4053782738351E-05
(PID.TID 0000.0001) %MON dynstat_wvel_del2            =   6.5170393902545E-08
(PID.TID 0000.0001) %MON dynstat_theta_max            =   1.2000000000000E+00
(PID.TID 0000.0001) %MON dynstat_theta_min            =  -1.0000000000000E+00
(PID.TID 0000.0001) %MON dynstat_theta_mean           =   5.6541576980671E-01
(PID.TID 0000.0001) %MON dynstat_theta_sd             =   8.4904927667946E-01
(PID.TID 0000.0001) %MON dynstat_theta_del2           =   8.7339163423336E-07
(PID.TID 0000.0001) %MON dynstat_salt_max             =   3.4700000000000E+01
(PID.TID 0000.0001) %MON dynstat_salt_min             =   3.4000000000000E+01
(PID.TID 0000.0001) %MON dynstat_salt_mean            =   3.4498079830392E+01
(PID.TID 0000.0001) %MON dynstat_salt_sd              =   2.7015270713920E-01
(PID.TID 0000.0001) %MON dynstat_salt_del2            =   3.0949661692802E-07
(PID.TID 0000.0001) %MON advcfl_uvel_max              =   4.0164538654777E-04
(PID.TID 0000.0001) %MON advcfl_vvel_max              =   4.2978742859587E-04
(PID.TID 0000.0001) %MON advcfl_wvel_max              =   6.9684741790290E-04
(PID.TID 0000.0001) %MON advcfl_W_hf_max              =   6.9684741790290E-04
(PID.TID 0000.0001) %MON pe_b_mean                    =  -6.8278423020850E-01
(PID.TID 0000.0001) %MON ke_max                       =   5.5296335140276E-06
(PID.TID 0000.0001) %MON ke_mean                      =   1.6709450352435E-08
(PID.TID 0000.0001) %MON ke_vol                       =   4.6182900669865E+12
(PID.TID 0000.0001) // =======================================================
(PID.TID 0000.0001) // End MONITOR dynamic field statistics
(PID.TID 0000.0001) // =======================================================
(PID.TID 0000.0001) // =======================================================
(PID.TID 0000.0001) // Begin OBCS MONITOR field statistics
(PID.TID 0000.0001) // =======================================================
(PID.TID 0000.0001) %MON obc_N_vVel_max               =  -7.9146343281394E-08
(PID.TID 0000.0001) %MON obc_N_vVel_min               =  -7.9146343281395E-08
(PID.TID 0000.0001) %MON obc_N_vVel_mean              =  -7.9146343281395E-08
(PID.TID 0000.0001) %MON obc_N_vVel_sd                =   7.6918507455343E-15
(PID.TID 0000.0001) %MON obc_N_vVel_Int               =  -5.2236586565721E+00
(PID.TID 0000.0001) // =======================================================
(PID.TID 0000.0001) // End OBCS MONITOR field statistics
(PID.TID 0000.0001) // =======================================================
 cg2d: Sum(rhs),rhsMax =   3.01188516072018E+00  4.53050830356489E+02
(PID.TID 0000.0001)      cg2d_init_res =   1.51435492565519E-06
(PID.TID 0000.0001)      cg2d_iters(min,last) =      -1      69
(PID.TID 0000.0001)      cg2d_last_res =   8.26330648542360E-12
(PID.TID 0000.0001) // =======================================================
(PID.TID 0000.0001) // Begin MONITOR dynamic field statistics
(PID.TID 0000.0001) // =======================================================
(PID.TID 0000.0001) %MON time_tsnumber                =                   433
(PID.TID 0000.0001) %MON time_secondsf                =   4.3300000000000E+04
(PID.TID 0000.0001) %MON dynstat_eta_max              =   5.7966793134692E+00
(PID.TID 0000.0001) %MON dynstat_eta_min              =  -1.4176464915539E+01
(PID.TID 0000.0001) %MON dynstat_eta_mean             =  -2.5269205055605E+00
(PID.TID 0000.0001) %MON dynstat_eta_sd               =   4.9419276497669E+00
(PID.TID 0000.0001) %MON dynstat_eta_del2             =   1.9058078781458E-01
(PID.TID 0000.0001) %MON dynstat_uvel_max             =   1.9126372817215E-03
(PID.TID 0000.0001) %MON dynstat_uvel_min             =  -4.0308939212688E-03
(PID.TID 0000.0001) %MON dynstat_uvel_mean            =  -1.4169500637802E-09
(PID.TID 0000.0001) %MON dynstat_uvel_sd              =   1.4737101760000E-04
(PID.TID 0000.0001) %MON dynstat_uvel_del2            =   2.8632997702121E-07
(PID.TID 0000.0001) %MON dynstat_vvel_max             =   4.3104877929343E-03
(PID.TID 0000.0001) %MON dynstat_vvel_min             =  -1.9872017494045E-03
(PID.TID 0000.0001) %MON dynstat_vvel_mean            =  -7.1747955348799E-08
(PID.TID 0000.0001) %MON dynstat_vvel_sd              =   1.1057746031253E-04
(PID.TID 0000.0001) %MON dynstat_vvel_del2            =   3.0251623468506E-07
(PID.TID 0000.0001) %MON dynstat_wvel_max             =   1.1425756630817E-04
(PID.TID 0000.0001) %MON dynstat_wvel_min             =  -1.3998547283157E-04
(PID.TID 0000.0001) %MON dynstat_wvel_mean            =   1.3062986782545E-10
(PID.TID 0000.0001) %MON dynstat_wvel_sd              =   1.4006360579848E-05
(PID.TID 0000.0001) %MON dynstat_wvel_del2            =   6.5041896976658E-08
(PID.TID 0000.0001) %MON dynstat_theta_max            =   1.2000000000000E+00
(PID.TID 0000.0001) %MON dynstat_theta_min            =  -1.0000000000000E+00
(PID.TID 0000.0001) %MON dynstat_theta_mean           =   5.6541553963153E-01
(PID.TID 0000.0001) %MON dynstat_theta_sd             =   8.4904922029212E-01
(PID.TID 0000.0001) %MON dynstat_theta_del2           =   8.7325982147912E-07
(PID.TID 0000.0001) %MON dynstat_salt_max             =   3.4700000000000E+01
(PID.TID 0000.0001) %MON dynstat_salt_min             =   3.4000000000000E+01
(PID.TID 0000.0001) %MON dynstat_salt_mean            =   3.4498079739229E+01
(PID.TID 0000.0001) %MON dynstat_salt_sd              =   2.7015268939490E-01
(PID.TID 0000.0001) %MON dynstat_salt_del2            =   3.0964831295206E-07
(PID.TID 0000.0001) %MON advcfl_uvel_max              =   4.0308939212688E-04
(PID.TID 0000.0001) %MON advcfl_vvel_max              =   4.3104877929343E-04
(PID.TID 0000.0001) %MON advcfl_wvel_max              =   6.9992736415787E-04
(PID.TID 0000.0001) %MON advcfl_W_hf_max              =   6.9992736415787E-04
(PID.TID 0000.0001) %MON pe_b_mean                    =  -6.8278366434574E-01
(PID.TID 0000.0001) %MON ke_max                       =   5.5596215961167E-06
(PID.TID 0000.0001) %MON ke_mean                      =   1.6768468322919E-08
(PID.TID 0000.0001) %MON ke_vol                       =   4.6182900795801E+12
(PID.TID 0000.0001) // =======================================================
(PID.TID 0000.0001) // End MONITOR dynamic field statistics
(PID.TID 0000.0001) // =======================================================
(PID.TID 0000.0001) // =======================================================
(PID.TID 0000.0001) // Begin OBCS MONITOR field statistics
(PID.TID 0000.0001) // =======================================================
(PID.TID 0000.0001) %MON obc_N_vVel_max               =  -8.0630946900244E-08
(PID.TID 0000.0001) %MON obc_N_vVel_min               =  -8.0630946900245E-08
(PID.TID 0000.0001) %MON obc_N_vVel_mean              =  -8.0630946900244E-08
(PID.TID 0000.0001) %MON obc_N_vVel_sd                =   1.2747758488281E-14
(PID.TID 0000.0001) %MON obc_N_vVel_Int               =  -5.3216424954161E+00
(PID.TID 0000.0001) // =======================================================
(PID.TID 0000.0001) // End OBCS MONITOR field statistics
(PID.TID 0000.0001) // =======================================================
 cg2d: Sum(rhs),rhsMax =   3.01188269277956E+00  4.53050820121582E+02
(PID.TID 0000.0001)      cg2d_init_res =   1.51286191653697E-06
(PID.TID 0000.0001)      cg2d_iters(min,last) =      -1      69
(PID.TID 0000.0001)      cg2d_last_res =   8.29741422721954E-12
(PID.TID 0000.0001) // =======================================================
(PID.TID 0000.0001) // Begin MONITOR dynamic field statistics
(PID.TID 0000.0001) // =======================================================
(PID.TID 0000.0001) %MON time_tsnumber                =                   434
(PID.TID 0000.0001) %MON time_secondsf                =   4.3400000000000E+04
(PID.TID 0000.0001) %MON dynstat_eta_max              =   5.7966820385791E+00
(PID.TID 0000.0001) %MON dynstat_eta_min              =  -1.4176459088426E+01
(PID.TID 0000.0001) %MON dynstat_eta_mean             =  -2.5269183779144E+00
(PID.TID 0000.0001) %MON dynstat_eta_sd               =   4.9419269707860E+00
(PID.TID 0000.0001) %MON dynstat_eta_del2             =   1.9058079036999E-01
(PID.TID 0000.0001) %MON dynstat_uvel_max             =   1.9156141854513E-03
(PID.TID 0000.0001) %MON dynstat_uvel_min             =  -4.0453635186966E-03
(PID.TID 0000.0001) %MON dynstat_uvel_mean            =  -1.4398801967397E-09
(PID.TID 0000.0001) %MON dynstat_uvel_sd              =   1.4773055970823E-04
(PID.TID 0000.0001) %MON dynstat_uvel_del2            =   2.8648952252211E-07
(PID.TID 0000.0001) %MON dynstat_vvel_max             =   4.3231074341379E-03
(PID.TID 0000.0001) %MON dynstat_vvel_min             =  -1.9882800292281E-03
(PID.TID 0000.0001) %MON dynstat_vvel_mean            =  -7.2848674286786E-08
(PID.TID 0000.0001) %MON dynstat_vvel_sd              =   1.1065057346353E-04
(PID.TID 0000.0001) %MON dynstat_vvel_del2            =   3.0245335151220E-07
(PID.TID 0000.0001) %MON dynstat_wvel_max             =   1.1491484522703E-04
(PID.TID 0000.0001) %MON dynstat_wvel_min             =  -1.4060253642469E-04
(PID.TID 0000.0001) %MON dynstat_wvel_mean            =   1.3283982227228E-10
(PID.TID 0000.0001) %MON dynstat_wvel_sd              =   1.3959983864861E-05
(PID.TID 0000.0001) %MON dynstat_wvel_del2            =   6.4906709651908E-08
(PID.TID 0000.0001) %MON dynstat_theta_max            =   1.2000000000000E+00
(PID.TID 0000.0001) %MON dynstat_theta_min            =  -1.0000000000000E+00
(PID.TID 0000.0001) %MON dynstat_theta_mean           =   5.6541530924506E-01
(PID.TID 0000.0001) %MON dynstat_theta_sd             =   8.4904916374172E-01
(PID.TID 0000.0001) %MON dynstat_theta_del2           =   8.7314399133486E-07
(PID.TID 0000.0001) %MON dynstat_salt_max             =   3.4700000000000E+01
(PID.TID 0000.0001) %MON dynstat_salt_min             =   3.4000000000000E+01
(PID.TID 0000.0001) %MON dynstat_salt_mean            =   3.4498079647979E+01
(PID.TID 0000.0001) %MON dynstat_salt_sd              =   2.7015267158552E-01
(PID.TID 0000.0001) %MON dynstat_salt_del2            =   3.0980523040197E-07
(PID.TID 0000.0001) %MON advcfl_uvel_max              =   4.0453635186966E-04
(PID.TID 0000.0001) %MON advcfl_vvel_max              =   4.3231074341379E-04
(PID.TID 0000.0001) %MON advcfl_wvel_max              =   7.0301268212343E-04
(PID.TID 0000.0001) %MON advcfl_W_hf_max              =   7.0301268212343E-04
(PID.TID 0000.0001) %MON pe_b_mean                    =  -6.8278309754051E-01
(PID.TID 0000.0001) %MON ke_max                       =   5.5897088986501E-06
(PID.TID 0000.0001) %MON ke_mean                      =   1.6828608962167E-08
(PID.TID 0000.0001) %MON ke_vol                       =   4.6182900921970E+12
(PID.TID 0000.0001) // =======================================================
(PID.TID 0000.0001) // End MONITOR dynamic field statistics
(PID.TID 0000.0001) // =======================================================
(PID.TID 0000.0001) // =======================================================
(PID.TID 0000.0001) // Begin OBCS MONITOR field statistics
(PID.TID 0000.0001) // =======================================================
(PID.TID 0000.0001) %MON obc_N_vVel_max               =  -8.1843883461798E-08
(PID.TID 0000.0001) %MON obc_N_vVel_min               =  -8.1843883461800E-08
(PID.TID 0000.0001) %MON obc_N_vVel_mean              =  -8.1843883461798E-08
(PID.TID 0000.0001) %MON obc_N_vVel_sd                =   2.3898437090739E-14
(PID.TID 0000.0001) %MON obc_N_vVel_Int               =  -5.4016963084787E+00
(PID.TID 0000.0001) // =======================================================
(PID.TID 0000.0001) // End OBCS MONITOR field statistics
(PID.TID 0000.0001) // =======================================================
 cg2d: Sum(rhs),rhsMax =   3.01188022112060E+00  4.53050809862784E+02
(PID.TID 0000.0001)      cg2d_init_res =   1.51125857344024E-06
(PID.TID 0000.0001)      cg2d_iters(min,last) =      -1      69
(PID.TID 0000.0001)      cg2d_last_res =   8.34077929297550E-12
(PID.TID 0000.0001) // =======================================================
(PID.TID 0000.0001) // Begin MONITOR dynamic field statistics
(PID.TID 0000.0001) // =======================================================
(PID.TID 0000.0001) %MON time_tsnumber                =                   435
(PID.TID 0000.0001) %MON time_secondsf                =   4.3500000000000E+04
(PID.TID 0000.0001) %MON dynstat_eta_max              =   5.7966847648690E+00
(PID.TID 0000.0001) %MON dynstat_eta_min              =  -1.4176453255322E+01
(PID.TID 0000.0001) %MON dynstat_eta_mean             =  -2.5269162470155E+00
(PID.TID 0000.0001) %MON dynstat_eta_sd               =   4.9419262910870E+00
(PID.TID 0000.0001) %MON dynstat_eta_del2             =   1.9058079294242E-01
(PID.TID 0000.0001) %MON dynstat_uvel_max             =   1.9185932775336E-03
(PID.TID 0000.0001) %MON dynstat_uvel_min             =  -4.0598627984476E-03
(PID.TID 0000.0001) %MON dynstat_uvel_mean            =  -1.4648799159756E-09
(PID.TID 0000.0001) %MON dynstat_uvel_sd              =   1.4808971597064E-04
(PID.TID 0000.0001) %MON dynstat_uvel_del2            =   2.8665343927510E-07
(PID.TID 0000.0001) %MON dynstat_vvel_max             =   4.3357333146283E-03
(PID.TID 0000.0001) %MON dynstat_vvel_min             =  -1.9893155149910E-03
(PID.TID 0000.0001) %MON dynstat_vvel_mean            =  -7.3584321429330E-08
(PID.TID 0000.0001) %MON dynstat_vvel_sd              =   1.1073386860126E-04
(PID.TID 0000.0001) %MON dynstat_vvel_del2            =   3.0238814922840E-07
(PID.TID 0000.0001) %MON dynstat_wvel_max             =   1.1557382666785E-04
(PID.TID 0000.0001) %MON dynstat_wvel_min             =  -1.4122067163511E-04
(PID.TID 0000.0001) %MON dynstat_wvel_mean            =   1.3531637264982E-10
(PID.TID 0000.0001) %MON dynstat_wvel_sd              =   1.3914855195412E-05
(PID.TID 0000.0001) %MON dynstat_wvel_del2            =   6.4759321671753E-08
(PID.TID 0000.0001) %MON dynstat_theta_max            =   1.2000000000000E+00
(PID.TID 0000.0001) %MON dynstat_theta_min            =  -1.0000000000000E+00
(PID.TID 0000.0001) %MON dynstat_theta_mean           =   5.6541507865194E-01
(PID.TID 0000.0001) %MON dynstat_theta_sd             =   8.4904910701476E-01
(PID.TID 0000.0001) %MON dynstat_theta_del2           =   8.7304340096868E-07
(PID.TID 0000.0001) %MON dynstat_salt_max             =   3.4700000000000E+01
(PID.TID 0000.0001) %MON dynstat_salt_min             =   3.4000000000000E+01
(PID.TID 0000.0001) %MON dynstat_salt_mean            =   3.4498079556642E+01
(PID.TID 0000.0001) %MON dynstat_salt_sd              =   2.7015265370687E-01
(PID.TID 0000.0001) %MON dynstat_salt_del2            =   3.0996715615385E-07
(PID.TID 0000.0001) %MON advcfl_uvel_max              =   4.0598627984476E-04
(PID.TID 0000.0001) %MON advcfl_vvel_max              =   4.3357333146283E-04
(PID.TID 0000.0001) %MON advcfl_wvel_max              =   7.0610335817554E-04
(PID.TID 0000.0001) %MON advcfl_W_hf_max              =   7.0610335817554E-04
(PID.TID 0000.0001) %MON pe_b_mean                    =  -6.8278252987192E-01
(PID.TID 0000.0001) %MON ke_max                       =   5.6198958850438E-06
(PID.TID 0000.0001) %MON ke_mean                      =   1.6889953097324E-08
(PID.TID 0000.0001) %MON ke_vol                       =   4.6182901048352E+12
(PID.TID 0000.0001) // =======================================================
(PID.TID 0000.0001) // End MONITOR dynamic field statistics
(PID.TID 0000.0001) // =======================================================
(PID.TID 0000.0001) // =======================================================
(PID.TID 0000.0001) // Begin OBCS MONITOR field statistics
(PID.TID 0000.0001) // =======================================================
(PID.TID 0000.0001) %MON obc_N_vVel_max               =  -8.2745042963578E-08
(PID.TID 0000.0001) %MON obc_N_vVel_min               =  -8.2745042963578E-08
(PID.TID 0000.0001) %MON obc_N_vVel_mean              =  -8.2745042963578E-08
(PID.TID 0000.0001) %MON obc_N_vVel_sd                =   1.2306961192855E-14
(PID.TID 0000.0001) %MON obc_N_vVel_Int               =  -5.4611728355962E+00
(PID.TID 0000.0001) // =======================================================
(PID.TID 0000.0001) // End OBCS MONITOR field statistics
(PID.TID 0000.0001) // =======================================================
 cg2d: Sum(rhs),rhsMax =   3.01187774611673E+00  4.53050799591360E+02
(PID.TID 0000.0001)      cg2d_init_res =   1.50944574189483E-06
(PID.TID 0000.0001)      cg2d_iters(min,last) =      -1      69
(PID.TID 0000.0001)      cg2d_last_res =   8.38518722551722E-12
(PID.TID 0000.0001) // =======================================================
(PID.TID 0000.0001) // Begin MONITOR dynamic field statistics
(PID.TID 0000.0001) // =======================================================
(PID.TID 0000.0001) %MON time_tsnumber                =                   436
(PID.TID 0000.0001) %MON time_secondsf                =   4.3600000000000E+04
(PID.TID 0000.0001) %MON dynstat_eta_max              =   5.7966874918974E+00
(PID.TID 0000.0001) %MON dynstat_eta_min              =  -1.4176447417195E+01
(PID.TID 0000.0001) %MON dynstat_eta_mean             =  -2.5269141132400E+00
(PID.TID 0000.0001) %MON dynstat_eta_sd               =   4.9419256108106E+00
(PID.TID 0000.0001) %MON dynstat_eta_del2             =   1.9058079553172E-01
(PID.TID 0000.0001) %MON dynstat_uvel_max             =   1.9215746713606E-03
(PID.TID 0000.0001) %MON dynstat_uvel_min             =  -4.0743919005726E-03
(PID.TID 0000.0001) %MON dynstat_uvel_mean            =  -1.4913879533092E-09
(PID.TID 0000.0001) %MON dynstat_uvel_sd              =   1.4844851550365E-04
(PID.TID 0000.0001) %MON dynstat_uvel_del2            =   2.8682168910080E-07
(PID.TID 0000.0001) %MON dynstat_vvel_max             =   4.3483655368388E-03
(PID.TID 0000.0001) %MON dynstat_vvel_min             =  -1.9903081333004E-03
(PID.TID 0000.0001) %MON dynstat_vvel_mean            =  -7.3931348482147E-08
(PID.TID 0000.0001) %MON dynstat_vvel_sd              =   1.1082796797500E-04
(PID.TID 0000.0001) %MON dynstat_vvel_del2            =   3.0231912034518E-07
(PID.TID 0000.0001) %MON dynstat_wvel_max             =   1.1623450977240E-04
(PID.TID 0000.0001) %MON dynstat_wvel_min             =  -1.4183987565661E-04
(PID.TID 0000.0001) %MON dynstat_wvel_mean            =   1.3797599084259E-10
(PID.TID 0000.0001) %MON dynstat_wvel_sd              =   1.3871298447226E-05
(PID.TID 0000.0001) %MON dynstat_wvel_del2            =   6.4595631412762E-08
(PID.TID 0000.0001) %MON dynstat_theta_max            =   1.2000000000000E+00
(PID.TID 0000.0001) %MON dynstat_theta_min            =  -1.0000000000000E+00
(PID.TID 0000.0001) %MON dynstat_theta_mean           =   5.6541484785644E-01
(PID.TID 0000.0001) %MON dynstat_theta_sd             =   8.4904905011797E-01
(PID.TID 0000.0001) %MON dynstat_theta_del2           =   8.7295633443925E-07
(PID.TID 0000.0001) %MON dynstat_salt_max             =   3.4700000000000E+01
(PID.TID 0000.0001) %MON dynstat_salt_min             =   3.4000000000000E+01
(PID.TID 0000.0001) %MON dynstat_salt_mean            =   3.4498079465221E+01
(PID.TID 0000.0001) %MON dynstat_salt_sd              =   2.7015263576107E-01
(PID.TID 0000.0001) %MON dynstat_salt_del2            =   3.1013358494487E-07
(PID.TID 0000.0001) %MON advcfl_uvel_max              =   4.0743919005726E-04
(PID.TID 0000.0001) %MON advcfl_vvel_max              =   4.3483655368388E-04
(PID.TID 0000.0001) %MON advcfl_wvel_max              =   7.0919937828307E-04
(PID.TID 0000.0001) %MON advcfl_W_hf_max              =   7.0919937828307E-04
(PID.TID 0000.0001) %MON pe_b_mean                    =  -6.8278196142232E-01
(PID.TID 0000.0001) %MON ke_max                       =   5.6501830148955E-06
(PID.TID 0000.0001) %MON ke_mean                      =   1.6952576063288E-08
(PID.TID 0000.0001) %MON ke_vol                       =   4.6182901174927E+12
(PID.TID 0000.0001) // =======================================================
(PID.TID 0000.0001) // End MONITOR dynamic field statistics
(PID.TID 0000.0001) // =======================================================
(PID.TID 0000.0001) // =======================================================
(PID.TID 0000.0001) // Begin OBCS MONITOR field statistics
(PID.TID 0000.0001) // =======================================================
(PID.TID 0000.0001) %MON obc_N_vVel_max               =  -8.3305435943149E-08
(PID.TID 0000.0001) %MON obc_N_vVel_min               =  -8.3305435943149E-08
(PID.TID 0000.0001) %MON obc_N_vVel_mean              =  -8.3305435943149E-08
(PID.TID 0000.0001) %MON obc_N_vVel_sd                =  -9.3085586816079E-29
(PID.TID 0000.0001) %MON obc_N_vVel_Int               =  -5.4981587722478E+00
(PID.TID 0000.0001) // =======================================================
(PID.TID 0000.0001) // End OBCS MONITOR field statistics
(PID.TID 0000.0001) // =======================================================
 cg2d: Sum(rhs),rhsMax =   3.01187526817404E+00  4.53050789317659E+02
(PID.TID 0000.0001)      cg2d_init_res =   1.50735622016000E-06
(PID.TID 0000.0001)      cg2d_iters(min,last) =      -1      69
(PID.TID 0000.0001)      cg2d_last_res =   8.42228019362288E-12
(PID.TID 0000.0001) // =======================================================
(PID.TID 0000.0001) // Begin MONITOR dynamic field statistics
(PID.TID 0000.0001) // =======================================================
(PID.TID 0000.0001) %MON time_tsnumber                =                   437
(PID.TID 0000.0001) %MON time_secondsf                =   4.3700000000000E+04
(PID.TID 0000.0001) %MON dynstat_eta_max              =   5.7966902191892E+00
(PID.TID 0000.0001) %MON dynstat_eta_min              =  -1.4176441575015E+01
(PID.TID 0000.0001) %MON dynstat_eta_mean             =  -2.5269119769863E+00
(PID.TID 0000.0001) %MON dynstat_eta_sd               =   4.9419249300941E+00
(PID.TID 0000.0001) %MON dynstat_eta_del2             =   1.9058079813785E-01
(PID.TID 0000.0001) %MON dynstat_uvel_max             =   1.9245584791090E-03
(PID.TID 0000.0001) %MON dynstat_uvel_min             =  -4.0889509644435E-03
(PID.TID 0000.0001) %MON dynstat_uvel_mean            =  -1.5188011327998E-09
(PID.TID 0000.0001) %MON dynstat_uvel_sd              =   1.4880699070015E-04
(PID.TID 0000.0001) %MON dynstat_uvel_del2            =   2.8699423408718E-07
(PID.TID 0000.0001) %MON dynstat_vvel_max             =   4.3610042007172E-03
(PID.TID 0000.0001) %MON dynstat_vvel_min             =  -1.9912578199159E-03
(PID.TID 0000.0001) %MON dynstat_vvel_mean            =  -7.3879431793167E-08
(PID.TID 0000.0001) %MON dynstat_vvel_sd              =   1.1093342257868E-04
(PID.TID 0000.0001) %MON dynstat_vvel_del2            =   3.0224576187060E-07
(PID.TID 0000.0001) %MON dynstat_wvel_max             =   1.1689689375495E-04
(PID.TID 0000.0001) %MON dynstat_wvel_min             =  -1.4246014555949E-04
(PID.TID 0000.0001) %MON dynstat_wvel_mean            =   1.4073030214601E-10
(PID.TID 0000.0001) %MON dynstat_wvel_sd              =   1.3829791049816E-05
(PID.TID 0000.0001) %MON dynstat_wvel_del2            =   6.4413548256413E-08
(PID.TID 0000.0001) %MON dynstat_theta_max            =   1.2000000000000E+00
(PID.TID 0000.0001) %MON dynstat_theta_min            =  -1.0000000000000E+00
(PID.TID 0000.0001) %MON dynstat_theta_mean           =   5.6541461686305E-01
(PID.TID 0000.0001) %MON dynstat_theta_sd             =   8.4904899305747E-01
(PID.TID 0000.0001) %MON dynstat_theta_del2           =   8.7287988530997E-07
(PID.TID 0000.0001) %MON dynstat_salt_max             =   3.4700000000000E+01
(PID.TID 0000.0001) %MON dynstat_salt_min             =   3.4000000000000E+01
(PID.TID 0000.0001) %MON dynstat_salt_mean            =   3.4498079373716E+01
(PID.TID 0000.0001) %MON dynstat_salt_sd              =   2.7015261774988E-01
(PID.TID 0000.0001) %MON dynstat_salt_del2            =   3.1030368538978E-07
(PID.TID 0000.0001) %MON advcfl_uvel_max              =   4.0889509644435E-04
(PID.TID 0000.0001) %MON advcfl_vvel_max              =   4.3610042007172E-04
(PID.TID 0000.0001) %MON advcfl_wvel_max              =   7.1230072779747E-04
(PID.TID 0000.0001) %MON advcfl_W_hf_max              =   7.1230072779747E-04
(PID.TID 0000.0001) %MON pe_b_mean                    =  -6.8278139227666E-01
(PID.TID 0000.0001) %MON ke_max                       =   5.6805707445458E-06
(PID.TID 0000.0001) %MON ke_mean                      =   1.7016546383329E-08
(PID.TID 0000.0001) %MON ke_vol                       =   4.6182901301674E+12
(PID.TID 0000.0001) // =======================================================
(PID.TID 0000.0001) // End MONITOR dynamic field statistics
(PID.TID 0000.0001) // =======================================================
(PID.TID 0000.0001) // =======================================================
(PID.TID 0000.0001) // Begin OBCS MONITOR field statistics
(PID.TID 0000.0001) // =======================================================
(PID.TID 0000.0001) %MON obc_N_vVel_max               =  -8.3507696979192E-08
(PID.TID 0000.0001) %MON obc_N_vVel_min               =  -8.3507696979194E-08
(PID.TID 0000.0001) %MON obc_N_vVel_mean              =  -8.3507696979194E-08
(PID.TID 0000.0001) %MON obc_N_vVel_sd                =  -4.7962743037438E-28
(PID.TID 0000.0001) %MON obc_N_vVel_Int               =  -5.5115080006268E+00
(PID.TID 0000.0001) // =======================================================
(PID.TID 0000.0001) // End OBCS MONITOR field statistics
(PID.TID 0000.0001) // =======================================================
 cg2d: Sum(rhs),rhsMax =   3.01187278771220E+00  4.53050779050902E+02
(PID.TID 0000.0001)      cg2d_init_res =   1.50495702929103E-06
(PID.TID 0000.0001)      cg2d_iters(min,last) =      -1      69
(PID.TID 0000.0001)      cg2d_last_res =   8.45174550139807E-12
(PID.TID 0000.0001) // =======================================================
(PID.TID 0000.0001) // Begin MONITOR dynamic field statistics
(PID.TID 0000.0001) // =======================================================
(PID.TID 0000.0001) %MON time_tsnumber                =                   438
(PID.TID 0000.0001) %MON time_secondsf                =   4.3800000000000E+04
(PID.TID 0000.0001) %MON dynstat_eta_max              =   5.7966929463039E+00
(PID.TID 0000.0001) %MON dynstat_eta_min              =  -1.4176435729734E+01
(PID.TID 0000.0001) %MON dynstat_eta_mean             =  -2.5269098386578E+00
(PID.TID 0000.0001) %MON dynstat_eta_sd               =   4.9419242490650E+00
(PID.TID 0000.0001) %MON dynstat_eta_del2             =   1.9058080076063E-01
(PID.TID 0000.0001) %MON dynstat_uvel_max             =   1.9275448114477E-03
(PID.TID 0000.0001) %MON dynstat_uvel_min             =  -4.1035401289182E-03
(PID.TID 0000.0001) %MON dynstat_uvel_mean            =  -1.5464962485575E-09
(PID.TID 0000.0001) %MON dynstat_uvel_sd              =   1.4916517718608E-04
(PID.TID 0000.0001) %MON dynstat_uvel_del2            =   2.8717103713265E-07
(PID.TID 0000.0001) %MON dynstat_vvel_max             =   4.3736494033237E-03
(PID.TID 0000.0001) %MON dynstat_vvel_min             =  -1.9921645200860E-03
(PID.TID 0000.0001) %MON dynstat_vvel_mean            =  -7.3431578296748E-08
(PID.TID 0000.0001) %MON dynstat_vvel_sd              =   1.1105069462261E-04
(PID.TID 0000.0001) %MON dynstat_vvel_del2            =   3.0216871925299E-07
(PID.TID 0000.0001) %MON dynstat_wvel_max             =   1.1756097790293E-04
(PID.TID 0000.0001) %MON dynstat_wvel_min             =  -1.4308147832289E-04
(PID.TID 0000.0001) %MON dynstat_wvel_mean            =   1.4348830792801E-10
(PID.TID 0000.0001) %MON dynstat_wvel_sd              =   1.3790976835218E-05
(PID.TID 0000.0001) %MON dynstat_wvel_del2            =   6.4213343521930E-08
(PID.TID 0000.0001) %MON dynstat_theta_max            =   1.2000000000000E+00
(PID.TID 0000.0001) %MON dynstat_theta_min            =  -1.0000000000000E+00
(PID.TID 0000.0001) %MON dynstat_theta_mean           =   5.6541438567608E-01
(PID.TID 0000.0001) %MON dynstat_theta_sd             =   8.4904893581218E-01
(PID.TID 0000.0001) %MON dynstat_theta_del2           =   8.7280994991505E-07
(PID.TID 0000.0001) %MON dynstat_salt_max             =   3.4700000000000E+01
(PID.TID 0000.0001) %MON dynstat_salt_min             =   3.4000000000000E+01
(PID.TID 0000.0001) %MON dynstat_salt_mean            =   3.4498079282129E+01
(PID.TID 0000.0001) %MON dynstat_salt_sd              =   2.7015259966671E-01
(PID.TID 0000.0001) %MON dynstat_salt_del2            =   3.1047630885436E-07
(PID.TID 0000.0001) %MON advcfl_uvel_max              =   4.1035401289182E-04
(PID.TID 0000.0001) %MON advcfl_vvel_max              =   4.3736494033237E-04
(PID.TID 0000.0001) %MON advcfl_wvel_max              =   7.1540739161446E-04
(PID.TID 0000.0001) %MON advcfl_W_hf_max              =   7.1540739161446E-04
(PID.TID 0000.0001) %MON pe_b_mean                    =  -6.8278082251814E-01
(PID.TID 0000.0001) %MON ke_max                       =   5.7110595258333E-06
(PID.TID 0000.0001) %MON ke_mean                      =   1.7081923848989E-08
(PID.TID 0000.0001) %MON ke_vol                       =   4.6182901428567E+12
(PID.TID 0000.0001) // =======================================================
(PID.TID 0000.0001) // End MONITOR dynamic field statistics
(PID.TID 0000.0001) // =======================================================
(PID.TID 0000.0001) // =======================================================
(PID.TID 0000.0001) // Begin OBCS MONITOR field statistics
(PID.TID 0000.0001) // =======================================================
(PID.TID 0000.0001) %MON obc_N_vVel_max               =  -8.3346467212664E-08
(PID.TID 0000.0001) %MON obc_N_vVel_min               =  -8.3346467212665E-08
(PID.TID 0000.0001) %MON obc_N_vVel_mean              =  -8.3346467212664E-08
(PID.TID 0000.0001) %MON obc_N_vVel_sd                =   1.4403833450617E-14
(PID.TID 0000.0001) %MON obc_N_vVel_Int               =  -5.5008668360358E+00
(PID.TID 0000.0001) // =======================================================
(PID.TID 0000.0001) // End OBCS MONITOR field statistics
(PID.TID 0000.0001) // =======================================================
 cg2d: Sum(rhs),rhsMax =   3.01187030514738E+00  4.53050768799083E+02
(PID.TID 0000.0001)      cg2d_init_res =   1.50224111044504E-06
(PID.TID 0000.0001)      cg2d_iters(min,last) =      -1      69
(PID.TID 0000.0001)      cg2d_last_res =   8.47687710144259E-12
(PID.TID 0000.0001) // =======================================================
(PID.TID 0000.0001) // Begin MONITOR dynamic field statistics
(PID.TID 0000.0001) // =======================================================
(PID.TID 0000.0001) %MON time_tsnumber                =                   439
(PID.TID 0000.0001) %MON time_secondsf                =   4.3900000000000E+04
(PID.TID 0000.0001) %MON dynstat_eta_max              =   5.7966956728156E+00
(PID.TID 0000.0001) %MON dynstat_eta_min              =  -1.4176429882253E+01
(PID.TID 0000.0001) %MON dynstat_eta_mean             =  -2.5269076986484E+00
(PID.TID 0000.0001) %MON dynstat_eta_sd               =   4.9419235678368E+00
(PID.TID 0000.0001) %MON dynstat_eta_del2             =   1.9058080339978E-01
(PID.TID 0000.0001) %MON dynstat_uvel_max             =   1.9305337776085E-03
(PID.TID 0000.0001) %MON dynstat_uvel_min             =  -4.1181595320943E-03
(PID.TID 0000.0001) %MON dynstat_uvel_mean            =  -1.5738501915304E-09
(PID.TID 0000.0001) %MON dynstat_uvel_sd              =   1.4952311371732E-04
(PID.TID 0000.0001) %MON dynstat_uvel_del2            =   2.8735206261911E-07
(PID.TID 0000.0001) %MON dynstat_vvel_max             =   4.3863012391592E-03
(PID.TID 0000.0001) %MON dynstat_vvel_min             =  -1.9930281885223E-03
(PID.TID 0000.0001) %MON dynstat_vvel_mean            =  -7.2603866613029E-08
(PID.TID 0000.0001) %MON dynstat_vvel_sd              =   1.1118013455003E-04
(PID.TID 0000.0001) %MON dynstat_vvel_del2            =   3.0208978921441E-07
(PID.TID 0000.0001) %MON dynstat_wvel_max             =   1.1822676152791E-04
(PID.TID 0000.0001) %MON dynstat_wvel_min             =  -1.4370387084384E-04
(PID.TID 0000.0001) %MON dynstat_wvel_mean            =   1.4615930443810E-10
(PID.TID 0000.0001) %MON dynstat_wvel_sd              =   1.3755656289777E-05
(PID.TID 0000.0001) %MON dynstat_wvel_del2            =   6.3997713328145E-08
(PID.TID 0000.0001) %MON dynstat_theta_max            =   1.2000000000000E+00
(PID.TID 0000.0001) %MON dynstat_theta_min            =  -1.0000000000000E+00
(PID.TID 0000.0001) %MON dynstat_theta_mean           =   5.6541415429947E-01
(PID.TID 0000.0001) %MON dynstat_theta_sd             =   8.4904887837206E-01
(PID.TID 0000.0001) %MON dynstat_theta_del2           =   8.7274140651723E-07
(PID.TID 0000.0001) %MON dynstat_salt_max             =   3.4700000000000E+01
(PID.TID 0000.0001) %MON dynstat_salt_min             =   3.4000000000000E+01
(PID.TID 0000.0001) %MON dynstat_salt_mean            =   3.4498079190461E+01
(PID.TID 0000.0001) %MON dynstat_salt_sd              =   2.7015258150831E-01
(PID.TID 0000.0001) %MON dynstat_salt_del2            =   3.1064999090759E-07
(PID.TID 0000.0001) %MON advcfl_uvel_max              =   4.1181595320943E-04
(PID.TID 0000.0001) %MON advcfl_vvel_max              =   4.3863012391592E-04
(PID.TID 0000.0001) %MON advcfl_wvel_max              =   7.1851935421918E-04
(PID.TID 0000.0001) %MON advcfl_W_hf_max              =   7.1851935421918E-04
(PID.TID 0000.0001) %MON pe_b_mean                    =  -6.8278025222505E-01
(PID.TID 0000.0001) %MON ke_max                       =   5.7416498067842E-06
(PID.TID 0000.0001) %MON ke_mean                      =   1.7148756961965E-08
(PID.TID 0000.0001) %MON ke_vol                       =   4.6182901555584E+12
(PID.TID 0000.0001) // =======================================================
(PID.TID 0000.0001) // End MONITOR dynamic field statistics
(PID.TID 0000.0001) // =======================================================
(PID.TID 0000.0001) // =======================================================
(PID.TID 0000.0001) // Begin OBCS MONITOR field statistics
(PID.TID 0000.0001) // =======================================================
(PID.TID 0000.0001) %MON obc_N_vVel_max               =  -8.2828491389410E-08
(PID.TID 0000.0001) %MON obc_N_vVel_min               =  -8.2828491389411E-08
(PID.TID 0000.0001) %MON obc_N_vVel_mean              =  -8.2828491389410E-08
(PID.TID 0000.0001) %MON obc_N_vVel_sd                =   8.5652824930386E-15
(PID.TID 0000.0001) %MON obc_N_vVel_Int               =  -5.4666804317011E+00
(PID.TID 0000.0001) // =======================================================
(PID.TID 0000.0001) // End OBCS MONITOR field statistics
(PID.TID 0000.0001) // =======================================================
 cg2d: Sum(rhs),rhsMax =   3.01186782088151E+00  4.53050758568854E+02
(PID.TID 0000.0001)      cg2d_init_res =   1.49926111952911E-06
(PID.TID 0000.0001)      cg2d_iters(min,last) =      -1      69
(PID.TID 0000.0001)      cg2d_last_res =   8.50383484759618E-12
(PID.TID 0000.0001) // =======================================================
(PID.TID 0000.0001) // Begin MONITOR dynamic field statistics
(PID.TID 0000.0001) // =======================================================
(PID.TID 0000.0001) %MON time_tsnumber                =                   440
(PID.TID 0000.0001) %MON time_secondsf                =   4.4000000000000E+04
(PID.TID 0000.0001) %MON dynstat_eta_max              =   5.7966983983480E+00
(PID.TID 0000.0001) %MON dynstat_eta_min              =  -1.4176424033388E+01
(PID.TID 0000.0001) %MON dynstat_eta_mean             =  -2.5269055573324E+00
(PID.TID 0000.0001) %MON dynstat_eta_sd               =   4.9419228865072E+00
(PID.TID 0000.0001) %MON dynstat_eta_del2             =   1.9058080605521E-01
(PID.TID 0000.0001) %MON dynstat_uvel_max             =   1.9335254854180E-03
(PID.TID 0000.0001) %MON dynstat_uvel_min             =  -4.1328093115656E-03
(PID.TID 0000.0001) %MON dynstat_uvel_mean            =  -1.6002466229559E-09
(PID.TID 0000.0001) %MON dynstat_uvel_sd              =   1.4988084201908E-04
(PID.TID 0000.0001) %MON dynstat_uvel_del2            =   2.8753727666671E-07
(PID.TID 0000.0001) %MON dynstat_vvel_max             =   4.3989598002372E-03
(PID.TID 0000.0001) %MON dynstat_vvel_min             =  -1.9938487888824E-03
(PID.TID 0000.0001) %MON dynstat_vvel_mean            =  -7.1424753242197E-08
(PID.TID 0000.0001) %MON dynstat_vvel_sd              =   1.1132195346725E-04
(PID.TID 0000.0001) %MON dynstat_vvel_del2            =   3.0201178245452E-07
(PID.TID 0000.0001) %MON dynstat_wvel_max             =   1.1889424396285E-04
(PID.TID 0000.0001) %MON dynstat_wvel_min             =  -1.4432731998339E-04
(PID.TID 0000.0001) %MON dynstat_wvel_mean            =   1.4865755772443E-10
(PID.TID 0000.0001) %MON dynstat_wvel_sd              =   1.3724753656291E-05
(PID.TID 0000.0001) %MON dynstat_wvel_del2            =   6.3771549367481E-08
(PID.TID 0000.0001) %MON dynstat_theta_max            =   1.2000000000000E+00
(PID.TID 0000.0001) %MON dynstat_theta_min            =  -1.0000000000000E+00
(PID.TID 0000.0001) %MON dynstat_theta_mean           =   5.6541392273716E-01
(PID.TID 0000.0001) %MON dynstat_theta_sd             =   8.4904882072120E-01
(PID.TID 0000.0001) %MON dynstat_theta_del2           =   8.7266797390791E-07
(PID.TID 0000.0001) %MON dynstat_salt_max             =   3.4700000000000E+01
(PID.TID 0000.0001) %MON dynstat_salt_min             =   3.4000000000000E+01
(PID.TID 0000.0001) %MON dynstat_salt_mean            =   3.4498079098713E+01
(PID.TID 0000.0001) %MON dynstat_salt_sd              =   2.7015256326945E-01
(PID.TID 0000.0001) %MON dynstat_salt_del2            =   3.1082297007681E-07
(PID.TID 0000.0001) %MON advcfl_uvel_max              =   4.1328093115656E-04
(PID.TID 0000.0001) %MON advcfl_vvel_max              =   4.3989598002372E-04
(PID.TID 0000.0001) %MON advcfl_wvel_max              =   7.2163659991693E-04
(PID.TID 0000.0001) %MON advcfl_W_hf_max              =   7.2163659991693E-04
(PID.TID 0000.0001) %MON pe_b_mean                    =  -6.8277968146916E-01
(PID.TID 0000.0001) %MON ke_max                       =   5.7723420317160E-06
(PID.TID 0000.0001) %MON ke_mean                      =   1.7217079822934E-08
(PID.TID 0000.0001) %MON ke_vol                       =   4.6182901682700E+12
(PID.TID 0000.0001) // =======================================================
(PID.TID 0000.0001) // End MONITOR dynamic field statistics
(PID.TID 0000.0001) // =======================================================
(PID.TID 0000.0001) // =======================================================
(PID.TID 0000.0001) // Begin OBCS MONITOR field statistics
(PID.TID 0000.0001) // =======================================================
(PID.TID 0000.0001) %MON obc_N_vVel_max               =  -8.1972361828881E-08
(PID.TID 0000.0001) %MON obc_N_vVel_min               =  -8.1972361828883E-08
(PID.TID 0000.0001) %MON obc_N_vVel_mean              =  -8.1972361828881E-08
(PID.TID 0000.0001) %MON obc_N_vVel_sd                =  -5.2853680649808E-29
(PID.TID 0000.0001) %MON obc_N_vVel_Int               =  -5.4101758807062E+00
(PID.TID 0000.0001) // =======================================================
(PID.TID 0000.0001) // End OBCS MONITOR field statistics
(PID.TID 0000.0001) // =======================================================
 cg2d: Sum(rhs),rhsMax =   3.01186533528815E+00  4.53050748365476E+02
(PID.TID 0000.0001)      cg2d_init_res =   1.49611436460689E-06
(PID.TID 0000.0001)      cg2d_iters(min,last) =      -1      69
(PID.TID 0000.0001)      cg2d_last_res =   8.53663341803567E-12
(PID.TID 0000.0001) // =======================================================
(PID.TID 0000.0001) // Begin MONITOR dynamic field statistics
(PID.TID 0000.0001) // =======================================================
(PID.TID 0000.0001) %MON time_tsnumber                =                   441
(PID.TID 0000.0001) %MON time_secondsf                =   4.4100000000000E+04
(PID.TID 0000.0001) %MON dynstat_eta_max              =   5.7967011225890E+00
(PID.TID 0000.0001) %MON dynstat_eta_min              =  -1.4176418183894E+01
(PID.TID 0000.0001) %MON dynstat_eta_mean             =  -2.5269034150525E+00
(PID.TID 0000.0001) %MON dynstat_eta_sd               =   4.9419222051558E+00
(PID.TID 0000.0001) %MON dynstat_eta_del2             =   1.9058080872678E-01
(PID.TID 0000.0001) %MON dynstat_uvel_max             =   1.9365200413262E-03
(PID.TID 0000.0001) %MON dynstat_uvel_min             =  -4.1474896046916E-03
(PID.TID 0000.0001) %MON dynstat_uvel_mean            =  -1.6251128652894E-09
(PID.TID 0000.0001) %MON dynstat_uvel_sd              =   1.5023840656499E-04
(PID.TID 0000.0001) %MON dynstat_uvel_del2            =   2.8772664760328E-07
(PID.TID 0000.0001) %MON dynstat_vvel_max             =   4.4116251763211E-03
(PID.TID 0000.0001) %MON dynstat_vvel_min             =  -1.9946262929436E-03
(PID.TID 0000.0001) %MON dynstat_vvel_mean            =  -6.9933970375768E-08
(PID.TID 0000.0001) %MON dynstat_vvel_sd              =   1.1147619220194E-04
(PID.TID 0000.0001) %MON dynstat_vvel_del2            =   3.0193826396415E-07
(PID.TID 0000.0001) %MON dynstat_wvel_max             =   1.1956342451725E-04
(PID.TID 0000.0001) %MON dynstat_wvel_min             =  -1.4495182266718E-04
(PID.TID 0000.0001) %MON dynstat_wvel_mean            =   1.5090495147880E-10
(PID.TID 0000.0001) %MON dynstat_wvel_sd              =   1.3699263065714E-05
(PID.TID 0000.0001) %MON dynstat_wvel_del2            =   6.3541447380209E-08
(PID.TID 0000.0001) %MON dynstat_theta_max            =   1.2000000000000E+00
(PID.TID 0000.0001) %MON dynstat_theta_min            =  -1.0000000000000E+00
(PID.TID 0000.0001) %MON dynstat_theta_mean           =   5.6541369099309E-01
(PID.TID 0000.0001) %MON dynstat_theta_sd             =   8.4904876283393E-01
(PID.TID 0000.0001) %MON dynstat_theta_del2           =   8.7258287905142E-07
(PID.TID 0000.0001) %MON dynstat_salt_max             =   3.4700000000000E+01
(PID.TID 0000.0001) %MON dynstat_salt_min             =   3.4000000000000E+01
(PID.TID 0000.0001) %MON dynstat_salt_mean            =   3.4498079006887E+01
(PID.TID 0000.0001) %MON dynstat_salt_sd              =   2.7015254494229E-01
(PID.TID 0000.0001) %MON dynstat_salt_del2            =   3.1099333834869E-07
(PID.TID 0000.0001) %MON advcfl_uvel_max              =   4.1474896046916E-04
(PID.TID 0000.0001) %MON advcfl_vvel_max              =   4.4116251763211E-04
(PID.TID 0000.0001) %MON advcfl_wvel_max              =   7.2475911333592E-04
(PID.TID 0000.0001) %MON advcfl_W_hf_max              =   7.2475911333592E-04
(PID.TID 0000.0001) %MON pe_b_mean                    =  -6.8277911031397E-01
(PID.TID 0000.0001) %MON ke_max                       =   5.8031366417020E-06
(PID.TID 0000.0001) %MON ke_mean                      =   1.7286908590240E-08
(PID.TID 0000.0001) %MON ke_vol                       =   4.6182901809894E+12
(PID.TID 0000.0001) // =======================================================
(PID.TID 0000.0001) // End MONITOR dynamic field statistics
(PID.TID 0000.0001) // =======================================================
(PID.TID 0000.0001) // =======================================================
(PID.TID 0000.0001) // Begin OBCS MONITOR field statistics
(PID.TID 0000.0001) // =======================================================
(PID.TID 0000.0001) %MON obc_N_vVel_max               =  -8.0807663775730E-08
(PID.TID 0000.0001) %MON obc_N_vVel_min               =  -8.0807663775731E-08
(PID.TID 0000.0001) %MON obc_N_vVel_mean              =  -8.0807663775731E-08
(PID.TID 0000.0001) %MON obc_N_vVel_sd                =  -3.8733070446352E-28
(PID.TID 0000.0001) %MON obc_N_vVel_Int               =  -5.3333058091983E+00
(PID.TID 0000.0001) // =======================================================
(PID.TID 0000.0001) // End OBCS MONITOR field statistics
(PID.TID 0000.0001) // =======================================================
 cg2d: Sum(rhs),rhsMax =   3.01186284869424E+00  4.53050738192894E+02
(PID.TID 0000.0001)      cg2d_init_res =   1.49290045236387E-06
(PID.TID 0000.0001)      cg2d_iters(min,last) =      -1      69
(PID.TID 0000.0001)      cg2d_last_res =   8.57269719758290E-12
(PID.TID 0000.0001) // =======================================================
(PID.TID 0000.0001) // Begin MONITOR dynamic field statistics
(PID.TID 0000.0001) // =======================================================
(PID.TID 0000.0001) %MON time_tsnumber                =                   442
(PID.TID 0000.0001) %MON time_secondsf                =   4.4200000000000E+04
(PID.TID 0000.0001) %MON dynstat_eta_max              =   5.7967038452780E+00
(PID.TID 0000.0001) %MON dynstat_eta_min              =  -1.4176412334440E+01
(PID.TID 0000.0001) %MON dynstat_eta_mean             =  -2.5269012721050E+00
(PID.TID 0000.0001) %MON dynstat_eta_sd               =   4.9419215238387E+00
(PID.TID 0000.0001) %MON dynstat_eta_del2             =   1.9058081141411E-01
(PID.TID 0000.0001) %MON dynstat_uvel_max             =   1.9395175502126E-03
(PID.TID 0000.0001) %MON dynstat_uvel_min             =  -4.1622005484356E-03
(PID.TID 0000.0001) %MON dynstat_uvel_mean            =  -1.6479221588469E-09
(PID.TID 0000.0001) %MON dynstat_uvel_sd              =   1.5059585429523E-04
(PID.TID 0000.0001) %MON dynstat_uvel_del2            =   2.8792014621729E-07
(PID.TID 0000.0001) %MON dynstat_vvel_max             =   4.4242974549440E-03
(PID.TID 0000.0001) %MON dynstat_vvel_min             =  -1.9953606793468E-03
(PID.TID 0000.0001) %MON dynstat_vvel_mean            =  -6.8181051483077E-08
(PID.TID 0000.0001) %MON dynstat_vvel_sd              =   1.1164268894631E-04
(PID.TID 0000.0001) %MON dynstat_vvel_del2            =   3.0187320340504E-07
(PID.TID 0000.0001) %MON dynstat_wvel_max             =   1.2023430269049E-04
(PID.TID 0000.0001) %MON dynstat_wvel_min             =  -1.4557737569214E-04
(PID.TID 0000.0001) %MON dynstat_wvel_mean            =   1.5283181395130E-10
(PID.TID 0000.0001) %MON dynstat_wvel_sd              =   1.3680178368628E-05
(PID.TID 0000.0001) %MON dynstat_wvel_del2            =   6.3315012545797E-08
(PID.TID 0000.0001) %MON dynstat_theta_max            =   1.2000000000000E+00
(PID.TID 0000.0001) %MON dynstat_theta_min            =  -1.0000000000000E+00
(PID.TID 0000.0001) %MON dynstat_theta_mean           =   5.6541345907074E-01
(PID.TID 0000.0001) %MON dynstat_theta_sd             =   8.4904870471096E-01
(PID.TID 0000.0001) %MON dynstat_theta_del2           =   8.7247913877381E-07
(PID.TID 0000.0001) %MON dynstat_salt_max             =   3.4700000000000E+01
(PID.TID 0000.0001) %MON dynstat_salt_min             =   3.4000000000000E+01
(PID.TID 0000.0001) %MON dynstat_salt_mean            =   3.4498078914983E+01
(PID.TID 0000.0001) %MON dynstat_salt_sd              =   2.7015252652668E-01
(PID.TID 0000.0001) %MON dynstat_salt_del2            =   3.1115912826062E-07
(PID.TID 0000.0001) %MON advcfl_uvel_max              =   4.1622005484356E-04
(PID.TID 0000.0001) %MON advcfl_vvel_max              =   4.4242974549440E-04
(PID.TID 0000.0001) %MON advcfl_wvel_max              =   7.2788687846068E-04
(PID.TID 0000.0001) %MON advcfl_W_hf_max              =   7.2788687846068E-04
(PID.TID 0000.0001) %MON pe_b_mean                    =  -6.8277853881105E-01
(PID.TID 0000.0001) %MON ke_max                       =   5.8340340743516E-06
(PID.TID 0000.0001) %MON ke_mean                      =   1.7358237714939E-08
(PID.TID 0000.0001) %MON ke_vol                       =   4.6182901937146E+12
(PID.TID 0000.0001) // =======================================================
(PID.TID 0000.0001) // End MONITOR dynamic field statistics
(PID.TID 0000.0001) // =======================================================
(PID.TID 0000.0001) // =======================================================
(PID.TID 0000.0001) // Begin OBCS MONITOR field statistics
(PID.TID 0000.0001) // =======================================================
(PID.TID 0000.0001) %MON obc_N_vVel_max               =  -7.9373716560880E-08
(PID.TID 0000.0001) %MON obc_N_vVel_min               =  -7.9373716560882E-08
(PID.TID 0000.0001) %MON obc_N_vVel_mean              =  -7.9373716560882E-08
(PID.TID 0000.0001) %MON obc_N_vVel_sd                =  -4.1651855795669E-28
(PID.TID 0000.0001) %MON obc_N_vVel_Int               =  -5.2386652930182E+00
(PID.TID 0000.0001) // =======================================================
(PID.TID 0000.0001) // End OBCS MONITOR field statistics
(PID.TID 0000.0001) // =======================================================
 cg2d: Sum(rhs),rhsMax =   3.01186036137308E+00  4.53050728053741E+02
(PID.TID 0000.0001)      cg2d_init_res =   1.48975588588381E-06
(PID.TID 0000.0001)      cg2d_iters(min,last) =      -1      69
(PID.TID 0000.0001)      cg2d_last_res =   8.60556977986106E-12
(PID.TID 0000.0001) // =======================================================
(PID.TID 0000.0001) // Begin MONITOR dynamic field statistics
(PID.TID 0000.0001) // =======================================================
(PID.TID 0000.0001) %MON time_tsnumber                =                   443
(PID.TID 0000.0001) %MON time_secondsf                =   4.4300000000000E+04
(PID.TID 0000.0001) %MON dynstat_eta_max              =   5.7967065662500E+00
(PID.TID 0000.0001) %MON dynstat_eta_min              =  -1.4176406485560E+01
(PID.TID 0000.0001) %MON dynstat_eta_mean             =  -2.5268991287339E+00
(PID.TID 0000.0001) %MON dynstat_eta_sd               =   4.9419208425894E+00
(PID.TID 0000.0001) %MON dynstat_eta_del2             =   1.9058081411696E-01
(PID.TID 0000.0001) %MON dynstat_uvel_max             =   1.9425181156585E-03
(PID.TID 0000.0001) %MON dynstat_uvel_min             =  -4.1769422794786E-03
(PID.TID 0000.0001) %MON dynstat_uvel_mean            =  -1.6682258388410E-09
(PID.TID 0000.0001) %MON dynstat_uvel_sd              =   1.5095323426420E-04
(PID.TID 0000.0001) %MON dynstat_uvel_del2            =   2.8811774600291E-07
(PID.TID 0000.0001) %MON dynstat_vvel_max             =   4.4369767221963E-03
(PID.TID 0000.0001) %MON dynstat_vvel_min             =  -1.9960519330944E-03
(PID.TID 0000.0001) %MON dynstat_vvel_mean            =  -6.6223551504120E-08
(PID.TID 0000.0001) %MON dynstat_vvel_sd              =   1.1182104797289E-04
(PID.TID 0000.0001) %MON dynstat_vvel_del2            =   3.0182057882693E-07
(PID.TID 0000.0001) %MON dynstat_wvel_max             =   1.2090687799482E-04
(PID.TID 0000.0001) %MON dynstat_wvel_min             =  -1.4620397572565E-04
(PID.TID 0000.0001) %MON dynstat_wvel_mean            =   1.5438002340076E-10
(PID.TID 0000.0001) %MON dynstat_wvel_sd              =   1.3668413622414E-05
(PID.TID 0000.0001) %MON dynstat_wvel_del2            =   6.3100046461101E-08
(PID.TID 0000.0001) %MON dynstat_theta_max            =   1.2000000000000E+00
(PID.TID 0000.0001) %MON dynstat_theta_min            =  -1.0000000000000E+00
(PID.TID 0000.0001) %MON dynstat_theta_mean           =   5.6541322697352E-01
(PID.TID 0000.0001) %MON dynstat_theta_sd             =   8.4904864638015E-01
(PID.TID 0000.0001) %MON dynstat_theta_del2           =   8.7235061418900E-07
(PID.TID 0000.0001) %MON dynstat_salt_max             =   3.4700000000000E+01
(PID.TID 0000.0001) %MON dynstat_salt_min             =   3.4000000000000E+01
(PID.TID 0000.0001) %MON dynstat_salt_mean            =   3.4498078823003E+01
(PID.TID 0000.0001) %MON dynstat_salt_sd              =   2.7015250803182E-01
(PID.TID 0000.0001) %MON dynstat_salt_del2            =   3.1131861965161E-07
(PID.TID 0000.0001) %MON advcfl_uvel_max              =   4.1769422794786E-04
(PID.TID 0000.0001) %MON advcfl_vvel_max              =   4.4369767221963E-04
(PID.TID 0000.0001) %MON advcfl_wvel_max              =   7.3101987862825E-04
(PID.TID 0000.0001) %MON advcfl_W_hf_max              =   7.3101987862825E-04
(PID.TID 0000.0001) %MON pe_b_mean                    =  -6.8277796699938E-01
(PID.TID 0000.0001) %MON ke_max                       =   5.8650347657434E-06
(PID.TID 0000.0001) %MON ke_mean                      =   1.7431036218349E-08
(PID.TID 0000.0001) %MON ke_vol                       =   4.6182902064437E+12
(PID.TID 0000.0001) // =======================================================
(PID.TID 0000.0001) // End MONITOR dynamic field statistics
(PID.TID 0000.0001) // =======================================================
(PID.TID 0000.0001) // =======================================================
(PID.TID 0000.0001) // Begin OBCS MONITOR field statistics
(PID.TID 0000.0001) // =======================================================
(PID.TID 0000.0001) %MON obc_N_vVel_max               =  -7.7718245078842E-08
(PID.TID 0000.0001) %MON obc_N_vVel_min               =  -7.7718245078843E-08
(PID.TID 0000.0001) %MON obc_N_vVel_mean              =  -7.7718245078843E-08
(PID.TID 0000.0001) %MON obc_N_vVel_sd                =  -4.2756261062979E-28
(PID.TID 0000.0001) %MON obc_N_vVel_Int               =  -5.1294041752037E+00
(PID.TID 0000.0001) // =======================================================
(PID.TID 0000.0001) // End OBCS MONITOR field statistics
(PID.TID 0000.0001) // =======================================================
 cg2d: Sum(rhs),rhsMax =   3.01185787353357E+00  4.53050717949436E+02
(PID.TID 0000.0001)      cg2d_init_res =   1.48681393507406E-06
(PID.TID 0000.0001)      cg2d_iters(min,last) =      -1      69
(PID.TID 0000.0001)      cg2d_last_res =   8.63233036348905E-12
(PID.TID 0000.0001) // =======================================================
(PID.TID 0000.0001) // Begin MONITOR dynamic field statistics
(PID.TID 0000.0001) // =======================================================
(PID.TID 0000.0001) %MON time_tsnumber                =                   444
(PID.TID 0000.0001) %MON time_secondsf                =   4.4400000000000E+04
(PID.TID 0000.0001) %MON dynstat_eta_max              =   5.7967092854339E+00
(PID.TID 0000.0001) %MON dynstat_eta_min              =  -1.4176400637634E+01
(PID.TID 0000.0001) %MON dynstat_eta_mean             =  -2.5268969851223E+00
(PID.TID 0000.0001) %MON dynstat_eta_sd               =   4.9419201614185E+00
(PID.TID 0000.0001) %MON dynstat_eta_del2             =   1.9058081683510E-01
(PID.TID 0000.0001) %MON dynstat_uvel_max             =   1.9455218396924E-03
(PID.TID 0000.0001) %MON dynstat_uvel_min             =  -4.1917149343522E-03
(PID.TID 0000.0001) %MON dynstat_uvel_mean            =  -1.6856869812409E-09
(PID.TID 0000.0001) %MON dynstat_uvel_sd              =   1.5131059724002E-04
(PID.TID 0000.0001) %MON dynstat_uvel_del2            =   2.8831942346650E-07
(PID.TID 0000.0001) %MON dynstat_vvel_max             =   4.4496630629385E-03
(PID.TID 0000.0001) %MON dynstat_vvel_min             =  -1.9967000446925E-03
(PID.TID 0000.0001) %MON dynstat_vvel_mean            =  -6.4125036603501E-08
(PID.TID 0000.0001) %MON dynstat_vvel_sd              =   1.1201061215309E-04
(PID.TID 0000.0001) %MON dynstat_vvel_del2            =   3.0178398447211E-07
(PID.TID 0000.0001) %MON dynstat_wvel_max             =   1.2158114981005E-04
(PID.TID 0000.0001) %MON dynstat_wvel_min             =  -1.4683161946784E-04
(PID.TID 0000.0001) %MON dynstat_wvel_mean            =   1.5550482578898E-10
(PID.TID 0000.0001) %MON dynstat_wvel_sd              =   1.3664722812016E-05
(PID.TID 0000.0001) %MON dynstat_wvel_del2            =   6.2903720238213E-08
(PID.TID 0000.0001) %MON dynstat_theta_max            =   1.2000000000000E+00
(PID.TID 0000.0001) %MON dynstat_theta_min            =  -1.0000000000000E+00
(PID.TID 0000.0001) %MON dynstat_theta_mean           =   5.6541299470460E-01
(PID.TID 0000.0001) %MON dynstat_theta_sd             =   8.4904858786351E-01
(PID.TID 0000.0001) %MON dynstat_theta_del2           =   8.7219235868343E-07
(PID.TID 0000.0001) %MON dynstat_salt_max             =   3.4700000000000E+01
(PID.TID 0000.0001) %MON dynstat_salt_min             =   3.4000000000000E+01
(PID.TID 0000.0001) %MON dynstat_salt_mean            =   3.4498078730948E+01
(PID.TID 0000.0001) %MON dynstat_salt_sd              =   2.7015248946436E-01
(PID.TID 0000.0001) %MON dynstat_salt_del2            =   3.1147043287819E-07
(PID.TID 0000.0001) %MON advcfl_uvel_max              =   4.1917149343522E-04
(PID.TID 0000.0001) %MON advcfl_vvel_max              =   4.4496630629385E-04
(PID.TID 0000.0001) %MON advcfl_wvel_max              =   7.3415809733919E-04
(PID.TID 0000.0001) %MON advcfl_W_hf_max              =   7.3415809733919E-04
(PID.TID 0000.0001) %MON pe_b_mean                    =  -6.8277739490410E-01
(PID.TID 0000.0001) %MON ke_max                       =   5.8961391505998E-06
(PID.TID 0000.0001) %MON ke_mean                      =   1.7505244315734E-08
(PID.TID 0000.0001) %MON ke_vol                       =   4.6182902191753E+12
(PID.TID 0000.0001) // =======================================================
(PID.TID 0000.0001) // End MONITOR dynamic field statistics
(PID.TID 0000.0001) // =======================================================
(PID.TID 0000.0001) // =======================================================
(PID.TID 0000.0001) // Begin OBCS MONITOR field statistics
(PID.TID 0000.0001) // =======================================================
(PID.TID 0000.0001) %MON obc_N_vVel_max               =  -7.5895678281252E-08
(PID.TID 0000.0001) %MON obc_N_vVel_min               =  -7.5895678281255E-08
(PID.TID 0000.0001) %MON obc_N_vVel_mean              =  -7.5895678281255E-08
(PID.TID 0000.0001) %MON obc_N_vVel_sd                =  -2.7925676044824E-28
(PID.TID 0000.0001) %MON obc_N_vVel_Int               =  -5.0091147665628E+00
(PID.TID 0000.0001) // =======================================================
(PID.TID 0000.0001) // End OBCS MONITOR field statistics
(PID.TID 0000.0001) // =======================================================
 cg2d: Sum(rhs),rhsMax =   3.01185538531030E+00  4.53050707880333E+02
(PID.TID 0000.0001)      cg2d_init_res =   1.48417484935716E-06
(PID.TID 0000.0001)      cg2d_iters(min,last) =      -1      69
(PID.TID 0000.0001)      cg2d_last_res =   8.65492733801399E-12
(PID.TID 0000.0001) // =======================================================
(PID.TID 0000.0001) // Begin MONITOR dynamic field statistics
(PID.TID 0000.0001) // =======================================================
(PID.TID 0000.0001) %MON time_tsnumber                =                   445
(PID.TID 0000.0001) %MON time_secondsf                =   4.4500000000000E+04
(PID.TID 0000.0001) %MON dynstat_eta_max              =   5.7967120028681E+00
(PID.TID 0000.0001) %MON dynstat_eta_min              =  -1.4176394790876E+01
(PID.TID 0000.0001) %MON dynstat_eta_mean             =  -2.5268948413852E+00
(PID.TID 0000.0001) %MON dynstat_eta_sd               =   4.9419194803108E+00
(PID.TID 0000.0001) %MON dynstat_eta_del2             =   1.9058081956828E-01
(PID.TID 0000.0001) %MON dynstat_uvel_max             =   1.9485288232879E-03
(PID.TID 0000.0001) %MON dynstat_uvel_min             =  -4.2065186496725E-03
(PID.TID 0000.0001) %MON dynstat_uvel_mean            =  -1.7000858835968E-09
(PID.TID 0000.0001) %MON dynstat_uvel_sd              =   1.5166799519661E-04
(PID.TID 0000.0001) %MON dynstat_uvel_del2            =   2.8852515803129E-07
(PID.TID 0000.0001) %MON dynstat_vvel_max             =   4.4623565618429E-03
(PID.TID 0000.0001) %MON dynstat_vvel_min             =  -1.9973050087936E-03
(PID.TID 0000.0001) %MON dynstat_vvel_mean            =  -6.1952889717007E-08
(PID.TID 0000.0001) %MON dynstat_vvel_sd              =   1.1221044197883E-04
(PID.TID 0000.0001) %MON dynstat_vvel_del2            =   3.0176629185434E-07
(PID.TID 0000.0001) %MON dynstat_wvel_max             =   1.2225711744118E-04
(PID.TID 0000.0001) %MON dynstat_wvel_min             =  -1.4746030368676E-04
(PID.TID 0000.0001) %MON dynstat_wvel_mean            =   1.5617652264674E-10
(PID.TID 0000.0001) %MON dynstat_wvel_sd              =   1.3669627818352E-05
(PID.TID 0000.0001) %MON dynstat_wvel_del2            =   6.2731841824218E-08
(PID.TID 0000.0001) %MON dynstat_theta_max            =   1.2000000000000E+00
(PID.TID 0000.0001) %MON dynstat_theta_min            =  -1.0000000000000E+00
(PID.TID 0000.0001) %MON dynstat_theta_mean           =   5.6541276226674E-01
(PID.TID 0000.0001) %MON dynstat_theta_sd             =   8.4904852916910E-01
(PID.TID 0000.0001) %MON dynstat_theta_del2           =   8.7200071583905E-07
(PID.TID 0000.0001) %MON dynstat_salt_max             =   3.4700000000000E+01
(PID.TID 0000.0001) %MON dynstat_salt_min             =   3.4000000000000E+01
(PID.TID 0000.0001) %MON dynstat_salt_mean            =   3.4498078638819E+01
(PID.TID 0000.0001) %MON dynstat_salt_sd              =   2.7015247082720E-01
(PID.TID 0000.0001) %MON dynstat_salt_del2            =   3.1161358501654E-07
(PID.TID 0000.0001) %MON advcfl_uvel_max              =   4.2065186496725E-04
(PID.TID 0000.0001) %MON advcfl_vvel_max              =   4.4623565618429E-04
(PID.TID 0000.0001) %MON advcfl_wvel_max              =   7.3730151843381E-04
(PID.TID 0000.0001) %MON advcfl_W_hf_max              =   7.3730151843381E-04
(PID.TID 0000.0001) %MON pe_b_mean                    =  -6.8277682253522E-01
(PID.TID 0000.0001) %MON ke_max                       =   5.9273476650515E-06
(PID.TID 0000.0001) %MON ke_mean                      =   1.7580770681248E-08
(PID.TID 0000.0001) %MON ke_vol                       =   4.6182902319084E+12
(PID.TID 0000.0001) // =======================================================
(PID.TID 0000.0001) // End MONITOR dynamic field statistics
(PID.TID 0000.0001) // =======================================================
(PID.TID 0000.0001) // =======================================================
(PID.TID 0000.0001) // Begin OBCS MONITOR field statistics
(PID.TID 0000.0001) // =======================================================
(PID.TID 0000.0001) %MON obc_N_vVel_max               =  -7.3965245175327E-08
(PID.TID 0000.0001) %MON obc_N_vVel_min               =  -7.3965245175328E-08
(PID.TID 0000.0001) %MON obc_N_vVel_mean              =  -7.3965245175327E-08
(PID.TID 0000.0001) %MON obc_N_vVel_sd                =  -2.3665827156630E-29
(PID.TID 0000.0001) %MON obc_N_vVel_Int               =  -4.8817061815716E+00
(PID.TID 0000.0001) // =======================================================
(PID.TID 0000.0001) // End OBCS MONITOR field statistics
(PID.TID 0000.0001) // =======================================================
 cg2d: Sum(rhs),rhsMax =   3.01185289676722E+00  4.53050697845788E+02
(PID.TID 0000.0001)      cg2d_init_res =   1.48193623907768E-06
(PID.TID 0000.0001)      cg2d_iters(min,last) =      -1      69
(PID.TID 0000.0001)      cg2d_last_res =   8.67051931208689E-12
(PID.TID 0000.0001) // =======================================================
(PID.TID 0000.0001) // Begin MONITOR dynamic field statistics
(PID.TID 0000.0001) // =======================================================
(PID.TID 0000.0001) %MON time_tsnumber                =                   446
(PID.TID 0000.0001) %MON time_secondsf                =   4.4600000000000E+04
(PID.TID 0000.0001) %MON dynstat_eta_max              =   5.7967147187003E+00
(PID.TID 0000.0001) %MON dynstat_eta_min              =  -1.4176388945352E+01
(PID.TID 0000.0001) %MON dynstat_eta_mean             =  -2.5268926975727E+00
(PID.TID 0000.0001) %MON dynstat_eta_sd               =   4.9419187992264E+00
(PID.TID 0000.0001) %MON dynstat_eta_del2             =   1.9058082231615E-01
(PID.TID 0000.0001) %MON dynstat_uvel_max             =   1.9515391661677E-03
(PID.TID 0000.0001) %MON dynstat_uvel_min             =  -4.2213535622722E-03
(PID.TID 0000.0001) %MON dynstat_uvel_mean            =  -1.7113259823686E-09
(PID.TID 0000.0001) %MON dynstat_uvel_sd              =   1.5202548078481E-04
(PID.TID 0000.0001) %MON dynstat_uvel_del2            =   2.8873493256094E-07
(PID.TID 0000.0001) %MON dynstat_vvel_max             =   4.4750573029642E-03
(PID.TID 0000.0001) %MON dynstat_vvel_min             =  -1.9978668227685E-03
(PID.TID 0000.0001) %MON dynstat_vvel_mean            =  -5.9776054196994E-08
(PID.TID 0000.0001) %MON dynstat_vvel_sd              =   1.1241930327855E-04
(PID.TID 0000.0001) %MON dynstat_vvel_del2            =   3.0176940178113E-07
(PID.TID 0000.0001) %MON dynstat_wvel_max             =   1.2293478021269E-04
(PID.TID 0000.0001) %MON dynstat_wvel_min             =  -1.4809002513321E-04
(PID.TID 0000.0001) %MON dynstat_wvel_mean            =   1.5637967489699E-10
(PID.TID 0000.0001) %MON dynstat_wvel_sd              =   1.3683362057246E-05
(PID.TID 0000.0001) %MON dynstat_wvel_del2            =   6.2588308274998E-08
(PID.TID 0000.0001) %MON dynstat_theta_max            =   1.2000000000000E+00
(PID.TID 0000.0001) %MON dynstat_theta_min            =  -1.0000000000000E+00
(PID.TID 0000.0001) %MON dynstat_theta_mean           =   5.6541252966294E-01
(PID.TID 0000.0001) %MON dynstat_theta_sd             =   8.4904847028986E-01
(PID.TID 0000.0001) %MON dynstat_theta_del2           =   8.7177346887152E-07
(PID.TID 0000.0001) %MON dynstat_salt_max             =   3.4700000000000E+01
(PID.TID 0000.0001) %MON dynstat_salt_min             =   3.4000000000000E+01
(PID.TID 0000.0001) %MON dynstat_salt_mean            =   3.4498078546615E+01
(PID.TID 0000.0001) %MON dynstat_salt_sd              =   2.7015245211778E-01
(PID.TID 0000.0001) %MON dynstat_salt_del2            =   3.1174744538678E-07
(PID.TID 0000.0001) %MON advcfl_uvel_max              =   4.2213535622722E-04
(PID.TID 0000.0001) %MON advcfl_vvel_max              =   4.4750573029642E-04
(PID.TID 0000.0001) %MON advcfl_wvel_max              =   7.4045012566604E-04
(PID.TID 0000.0001) %MON advcfl_W_hf_max              =   7.4045012566604E-04
(PID.TID 0000.0001) %MON pe_b_mean                    =  -6.8277624988938E-01
(PID.TID 0000.0001) %MON ke_max                       =   5.9586607454749E-06
(PID.TID 0000.0001) %MON ke_mean                      =   1.7657490623219E-08
(PID.TID 0000.0001) %MON ke_vol                       =   4.6182902446422E+12
(PID.TID 0000.0001) // =======================================================
(PID.TID 0000.0001) // End MONITOR dynamic field statistics
(PID.TID 0000.0001) // =======================================================
(PID.TID 0000.0001) // =======================================================
(PID.TID 0000.0001) // Begin OBCS MONITOR field statistics
(PID.TID 0000.0001) // =======================================================
(PID.TID 0000.0001) %MON obc_N_vVel_max               =  -7.1988883547234E-08
(PID.TID 0000.0001) %MON obc_N_vVel_min               =  -7.1988883547235E-08
(PID.TID 0000.0001) %MON obc_N_vVel_mean              =  -7.1988883547234E-08
(PID.TID 0000.0001) %MON obc_N_vVel_sd                =   3.0767402982137E-15
(PID.TID 0000.0001) %MON obc_N_vVel_Int               =  -4.7512663141175E+00
(PID.TID 0000.0001) // =======================================================
(PID.TID 0000.0001) // End OBCS MONITOR field statistics
(PID.TID 0000.0001) // =======================================================
 cg2d: Sum(rhs),rhsMax =   3.01185040789259E+00  4.53050687844386E+02
(PID.TID 0000.0001)      cg2d_init_res =   1.48013743401699E-06
(PID.TID 0000.0001)      cg2d_iters(min,last) =      -1      69
(PID.TID 0000.0001)      cg2d_last_res =   8.67869943253395E-12
(PID.TID 0000.0001) // =======================================================
(PID.TID 0000.0001) // Begin MONITOR dynamic field statistics
(PID.TID 0000.0001) // =======================================================
(PID.TID 0000.0001) %MON time_tsnumber                =                   447
(PID.TID 0000.0001) %MON time_secondsf                =   4.4700000000000E+04
(PID.TID 0000.0001) %MON dynstat_eta_max              =   5.7967174331872E+00
(PID.TID 0000.0001) %MON dynstat_eta_min              =  -1.4176383100983E+01
(PID.TID 0000.0001) %MON dynstat_eta_mean             =  -2.5268905536669E+00
(PID.TID 0000.0001) %MON dynstat_eta_sd               =   4.9419181181036E+00
(PID.TID 0000.0001) %MON dynstat_eta_del2             =   1.9058082507829E-01
(PID.TID 0000.0001) %MON dynstat_uvel_max             =   1.9545529666622E-03
(PID.TID 0000.0001) %MON dynstat_uvel_min             =  -4.2362198090711E-03
(PID.TID 0000.0001) %MON dynstat_uvel_mean            =  -1.7194168807614E-09
(PID.TID 0000.0001) %MON dynstat_uvel_sd              =   1.5238310669351E-04
(PID.TID 0000.0001) %MON dynstat_uvel_del2            =   2.8894873233593E-07
(PID.TID 0000.0001) %MON dynstat_vvel_max             =   4.4877653703539E-03
(PID.TID 0000.0001) %MON dynstat_vvel_min             =  -1.9983854851846E-03
(PID.TID 0000.0001) %MON dynstat_vvel_mean            =  -5.7662796237949E-08
(PID.TID 0000.0001) %MON dynstat_vvel_sd              =   1.1263566495669E-04
(PID.TID 0000.0001) %MON dynstat_vvel_del2            =   3.0179410993612E-07
(PID.TID 0000.0001) %MON dynstat_wvel_max             =   1.2361413756751E-04
(PID.TID 0000.0001) %MON dynstat_wvel_min             =  -1.4872078040094E-04
(PID.TID 0000.0001) %MON dynstat_wvel_mean            =   1.5611525582043E-10
(PID.TID 0000.0001) %MON dynstat_wvel_sd              =   1.3705834997422E-05
(PID.TID 0000.0001) %MON dynstat_wvel_del2            =   6.2474807177763E-08
(PID.TID 0000.0001) %MON dynstat_theta_max            =   1.2000000000000E+00
(PID.TID 0000.0001) %MON dynstat_theta_min            =  -1.0000000000000E+00
(PID.TID 0000.0001) %MON dynstat_theta_mean           =   5.6541229689621E-01
(PID.TID 0000.0001) %MON dynstat_theta_sd             =   8.4904841121258E-01
(PID.TID 0000.0001) %MON dynstat_theta_del2           =   8.7151034643854E-07
(PID.TID 0000.0001) %MON dynstat_salt_max             =   3.4700000000000E+01
(PID.TID 0000.0001) %MON dynstat_salt_min             =   3.4000000000000E+01
(PID.TID 0000.0001) %MON dynstat_salt_mean            =   3.4498078454340E+01
(PID.TID 0000.0001) %MON dynstat_salt_sd              =   2.7015243333217E-01
(PID.TID 0000.0001) %MON dynstat_salt_del2            =   3.1187196839248E-07
(PID.TID 0000.0001) %MON advcfl_uvel_max              =   4.2362198090711E-04
(PID.TID 0000.0001) %MON advcfl_vvel_max              =   4.4877653703539E-04
(PID.TID 0000.0001) %MON advcfl_wvel_max              =   7.4360390200470E-04
(PID.TID 0000.0001) %MON advcfl_W_hf_max              =   7.4360390200470E-04
(PID.TID 0000.0001) %MON pe_b_mean                    =  -6.8277567694945E-01
(PID.TID 0000.0001) %MON ke_max                       =   5.9900788297089E-06
(PID.TID 0000.0001) %MON ke_mean                      =   1.7735245323109E-08
(PID.TID 0000.0001) %MON ke_vol                       =   4.6182902573764E+12
(PID.TID 0000.0001) // =======================================================
(PID.TID 0000.0001) // End MONITOR dynamic field statistics
(PID.TID 0000.0001) // =======================================================
(PID.TID 0000.0001) // =======================================================
(PID.TID 0000.0001) // Begin OBCS MONITOR field statistics
(PID.TID 0000.0001) // =======================================================
(PID.TID 0000.0001) %MON obc_N_vVel_max               =  -7.0029329420516E-08
(PID.TID 0000.0001) %MON obc_N_vVel_min               =  -7.0029329420517E-08
(PID.TID 0000.0001) %MON obc_N_vVel_mean              =  -7.0029329420516E-08
(PID.TID 0000.0001) %MON obc_N_vVel_sd                =   1.4915051970152E-14
(PID.TID 0000.0001) %MON obc_N_vVel_Int               =  -4.6219357417541E+00
(PID.TID 0000.0001) // =======================================================
(PID.TID 0000.0001) // End OBCS MONITOR field statistics
(PID.TID 0000.0001) // =======================================================
 cg2d: Sum(rhs),rhsMax =   3.01184791859080E+00  4.53050677874091E+02
(PID.TID 0000.0001)      cg2d_init_res =   1.47876271607633E-06
(PID.TID 0000.0001)      cg2d_iters(min,last) =      -1      69
(PID.TID 0000.0001)      cg2d_last_res =   8.68202395751078E-12
(PID.TID 0000.0001) // =======================================================
(PID.TID 0000.0001) // Begin MONITOR dynamic field statistics
(PID.TID 0000.0001) // =======================================================
(PID.TID 0000.0001) %MON time_tsnumber                =                   448
(PID.TID 0000.0001) %MON time_secondsf                =   4.4800000000000E+04
(PID.TID 0000.0001) %MON dynstat_eta_max              =   5.7967201466995E+00
(PID.TID 0000.0001) %MON dynstat_eta_min              =  -1.4176377257539E+01
(PID.TID 0000.0001) %MON dynstat_eta_mean             =  -2.5268884095764E+00
(PID.TID 0000.0001) %MON dynstat_eta_sd               =   4.9419174368611E+00
(PID.TID 0000.0001) %MON dynstat_eta_del2             =   1.9058082785431E-01
(PID.TID 0000.0001) %MON dynstat_uvel_max             =   1.9575703221300E-03
(PID.TID 0000.0001) %MON dynstat_uvel_min             =  -4.2511175272741E-03
(PID.TID 0000.0001) %MON dynstat_uvel_mean            =  -1.7244631857261E-09
(PID.TID 0000.0001) %MON dynstat_uvel_sd              =   1.5274092500422E-04
(PID.TID 0000.0001) %MON dynstat_uvel_del2            =   2.8916654537967E-07
(PID.TID 0000.0001) %MON dynstat_vvel_max             =   4.5004808487004E-03
(PID.TID 0000.0001) %MON dynstat_vvel_min             =  -1.9988609947728E-03
(PID.TID 0000.0001) %MON dynstat_vvel_mean            =  -5.5678470827865E-08
(PID.TID 0000.0001) %MON dynstat_vvel_sd              =   1.1285770784065E-04
(PID.TID 0000.0001) %MON dynstat_vvel_del2            =   3.0184010221961E-07
(PID.TID 0000.0001) %MON dynstat_wvel_max             =   1.2429518907276E-04
(PID.TID 0000.0001) %MON dynstat_wvel_min             =  -1.4935256602277E-04
(PID.TID 0000.0001) %MON dynstat_wvel_mean            =   1.5539887647275E-10
(PID.TID 0000.0001) %MON dynstat_wvel_sd              =   1.3736620980707E-05
(PID.TID 0000.0001) %MON dynstat_wvel_del2            =   6.2390806228256E-08
(PID.TID 0000.0001) %MON dynstat_theta_max            =   1.2000000000000E+00
(PID.TID 0000.0001) %MON dynstat_theta_min            =  -1.0000000000000E+00
(PID.TID 0000.0001) %MON dynstat_theta_mean           =   5.6541206396879E-01
(PID.TID 0000.0001) %MON dynstat_theta_sd             =   8.4904835192885E-01
(PID.TID 0000.0001) %MON dynstat_theta_del2           =   8.7121269547802E-07
(PID.TID 0000.0001) %MON dynstat_salt_max             =   3.4700000000000E+01
(PID.TID 0000.0001) %MON dynstat_salt_min             =   3.4000000000000E+01
(PID.TID 0000.0001) %MON dynstat_salt_mean            =   3.4498078361992E+01
(PID.TID 0000.0001) %MON dynstat_salt_sd              =   2.7015241446757E-01
(PID.TID 0000.0001) %MON dynstat_salt_del2            =   3.1198757654541E-07
(PID.TID 0000.0001) %MON advcfl_uvel_max              =   4.2511175272741E-04
(PID.TID 0000.0001) %MON advcfl_vvel_max              =   4.5004808487004E-04
(PID.TID 0000.0001) %MON advcfl_wvel_max              =   7.4676283011383E-04
(PID.TID 0000.0001) %MON advcfl_W_hf_max              =   7.4676283011383E-04
(PID.TID 0000.0001) %MON pe_b_mean                    =  -6.8277510368307E-01
(PID.TID 0000.0001) %MON ke_max                       =   6.0216023589007E-06
(PID.TID 0000.0001) %MON ke_mean                      =   1.7813842303092E-08
(PID.TID 0000.0001) %MON ke_vol                       =   4.6182902701112E+12
(PID.TID 0000.0001) // =======================================================
(PID.TID 0000.0001) // End MONITOR dynamic field statistics
(PID.TID 0000.0001) // =======================================================
(PID.TID 0000.0001) // =======================================================
(PID.TID 0000.0001) // Begin OBCS MONITOR field statistics
(PID.TID 0000.0001) // =======================================================
(PID.TID 0000.0001) %MON obc_N_vVel_max               =  -6.8147930497786E-08
(PID.TID 0000.0001) %MON obc_N_vVel_min               =  -6.8147930497787E-08
(PID.TID 0000.0001) %MON obc_N_vVel_mean              =  -6.8147930497786E-08
(PID.TID 0000.0001) %MON obc_N_vVel_sd                =  -4.9698237028924E-29
(PID.TID 0000.0001) %MON obc_N_vVel_Int               =  -4.4977634128539E+00
(PID.TID 0000.0001) // =======================================================
(PID.TID 0000.0001) // End OBCS MONITOR field statistics
(PID.TID 0000.0001) // =======================================================
 cg2d: Sum(rhs),rhsMax =   3.01184542869516E+00  4.53050667932421E+02
(PID.TID 0000.0001)      cg2d_init_res =   1.47777519884127E-06
(PID.TID 0000.0001)      cg2d_iters(min,last) =      -1      69
(PID.TID 0000.0001)      cg2d_last_res =   8.68578959232787E-12
(PID.TID 0000.0001) // =======================================================
(PID.TID 0000.0001) // Begin MONITOR dynamic field statistics
(PID.TID 0000.0001) // =======================================================
(PID.TID 0000.0001) %MON time_tsnumber                =                   449
(PID.TID 0000.0001) %MON time_secondsf                =   4.4900000000000E+04
(PID.TID 0000.0001) %MON dynstat_eta_max              =   5.7967228597068E+00
(PID.TID 0000.0001) %MON dynstat_eta_min              =  -1.4176371414681E+01
(PID.TID 0000.0001) %MON dynstat_eta_mean             =  -2.5268862651473E+00
(PID.TID 0000.0001) %MON dynstat_eta_sd               =   4.9419167554051E+00
(PID.TID 0000.0001) %MON dynstat_eta_del2             =   1.9058083064403E-01
(PID.TID 0000.0001) %MON dynstat_uvel_max             =   1.9605913289027E-03
(PID.TID 0000.0001) %MON dynstat_uvel_min             =  -4.2660468545206E-03
(PID.TID 0000.0001) %MON dynstat_uvel_mean            =  -1.7266645490400E-09
(PID.TID 0000.0001) %MON dynstat_uvel_sd              =   1.5309898647470E-04
(PID.TID 0000.0001) %MON dynstat_uvel_del2            =   2.8938836217326E-07
(PID.TID 0000.0001) %MON dynstat_vvel_max             =   4.5132038238038E-03
(PID.TID 0000.0001) %MON dynstat_vvel_min             =  -1.9992933493889E-03
(PID.TID 0000.0001) %MON dynstat_vvel_mean            =  -5.3883393012432E-08
(PID.TID 0000.0001) %MON dynstat_vvel_sd              =   1.1308334469006E-04
(PID.TID 0000.0001) %MON dynstat_vvel_del2            =   3.0190607193789E-07
(PID.TID 0000.0001) %MON dynstat_wvel_max             =   1.2497793436534E-04
(PID.TID 0000.0001) %MON dynstat_wvel_min             =  -1.4998537851223E-04
(PID.TID 0000.0001) %MON dynstat_wvel_mean            =   1.5426140421281E-10
(PID.TID 0000.0001) %MON dynstat_wvel_sd              =   1.3774972192120E-05
(PID.TID 0000.0001) %MON dynstat_wvel_del2            =   6.2333820934158E-08
(PID.TID 0000.0001) %MON dynstat_theta_max            =   1.2000000000000E+00
(PID.TID 0000.0001) %MON dynstat_theta_min            =  -1.0000000000000E+00
(PID.TID 0000.0001) %MON dynstat_theta_mean           =   5.6541183088296E-01
(PID.TID 0000.0001) %MON dynstat_theta_sd             =   8.4904829243669E-01
(PID.TID 0000.0001) %MON dynstat_theta_del2           =   8.7088374224809E-07
(PID.TID 0000.0001) %MON dynstat_salt_max             =   3.4700000000000E+01
(PID.TID 0000.0001) %MON dynstat_salt_min             =   3.4000000000000E+01
(PID.TID 0000.0001) %MON dynstat_salt_mean            =   3.4498078269573E+01
(PID.TID 0000.0001) %MON dynstat_salt_sd              =   2.7015239552321E-01
(PID.TID 0000.0001) %MON dynstat_salt_del2            =   3.1209512914440E-07
(PID.TID 0000.0001) %MON advcfl_uvel_max              =   4.2660468545206E-04
(PID.TID 0000.0001) %MON advcfl_vvel_max              =   4.5132038238038E-04
(PID.TID 0000.0001) %MON advcfl_wvel_max              =   7.4992689256117E-04
(PID.TID 0000.0001) %MON advcfl_W_hf_max              =   7.4992689256117E-04
(PID.TID 0000.0001) %MON pe_b_mean                    =  -6.8277453004621E-01
(PID.TID 0000.0001) %MON ke_max                       =   6.0532317785415E-06
(PID.TID 0000.0001) %MON ke_mean                      =   1.7893057150992E-08
(PID.TID 0000.0001) %MON ke_vol                       =   4.6182902828471E+12
(PID.TID 0000.0001) // =======================================================
(PID.TID 0000.0001) // End MONITOR dynamic field statistics
(PID.TID 0000.0001) // =======================================================
(PID.TID 0000.0001) // =======================================================
(PID.TID 0000.0001) // Begin OBCS MONITOR field statistics
(PID.TID 0000.0001) // =======================================================
(PID.TID 0000.0001) %MON obc_N_vVel_max               =  -6.6402766731452E-08
(PID.TID 0000.0001) %MON obc_N_vVel_min               =  -6.6402766731452E-08
(PID.TID 0000.0001) %MON obc_N_vVel_mean              =  -6.6402766731452E-08
(PID.TID 0000.0001) %MON obc_N_vVel_sd                =  -1.5303901561288E-28
(PID.TID 0000.0001) %MON obc_N_vVel_Int               =  -4.3825826042758E+00
(PID.TID 0000.0001) // =======================================================
(PID.TID 0000.0001) // End OBCS MONITOR field statistics
(PID.TID 0000.0001) // =======================================================
 cg2d: Sum(rhs),rhsMax =   3.01184293797296E+00  4.53050658016604E+02
(PID.TID 0000.0001)      cg2d_init_res =   1.47710182717349E-06
(PID.TID 0000.0001)      cg2d_iters(min,last) =      -1      69
(PID.TID 0000.0001)      cg2d_last_res =   8.69386755588446E-12
(PID.TID 0000.0001) // =======================================================
(PID.TID 0000.0001) // Begin MONITOR dynamic field statistics
(PID.TID 0000.0001) // =======================================================
(PID.TID 0000.0001) %MON time_tsnumber                =                   450
(PID.TID 0000.0001) %MON time_secondsf                =   4.5000000000000E+04
(PID.TID 0000.0001) %MON dynstat_eta_max              =   5.7967255727436E+00
(PID.TID 0000.0001) %MON dynstat_eta_min              =  -1.4176365571960E+01
(PID.TID 0000.0001) %MON dynstat_eta_mean             =  -2.5268841201691E+00
(PID.TID 0000.0001) %MON dynstat_eta_sd               =   4.9419160736305E+00
(PID.TID 0000.0001) %MON dynstat_eta_del2             =   1.9058083344730E-01
(PID.TID 0000.0001) %MON dynstat_uvel_max             =   1.9636160823708E-03
(PID.TID 0000.0001) %MON dynstat_uvel_min             =  -4.2810079288751E-03
(PID.TID 0000.0001) %MON dynstat_uvel_mean            =  -1.7262943941129E-09
(PID.TID 0000.0001) %MON dynstat_uvel_sd              =   1.5345733978202E-04
(PID.TID 0000.0001) %MON dynstat_uvel_del2            =   2.8961417591336E-07
(PID.TID 0000.0001) %MON dynstat_vvel_max             =   4.5259343829760E-03
(PID.TID 0000.0001) %MON dynstat_vvel_min             =  -1.9996825449491E-03
(PID.TID 0000.0001) %MON dynstat_vvel_mean            =  -5.2330937240524E-08
(PID.TID 0000.0001) %MON dynstat_vvel_sd              =   1.1331025063175E-04
(PID.TID 0000.0001) %MON dynstat_vvel_del2            =   3.0198993674723E-07
(PID.TID 0000.0001) %MON dynstat_wvel_max             =   1.2566237312706E-04
(PID.TID 0000.0001) %MON dynstat_wvel_min             =  -1.5061921439659E-04
(PID.TID 0000.0001) %MON dynstat_wvel_mean            =   1.5274659908520E-10
(PID.TID 0000.0001) %MON dynstat_wvel_sd              =   1.3819852409241E-05
(PID.TID 0000.0001) %MON dynstat_wvel_del2            =   6.2299910621976E-08
(PID.TID 0000.0001) %MON dynstat_theta_max            =   1.2000000000000E+00
(PID.TID 0000.0001) %MON dynstat_theta_min            =  -1.0000000000000E+00
(PID.TID 0000.0001) %MON dynstat_theta_mean           =   5.6541159764106E-01
(PID.TID 0000.0001) %MON dynstat_theta_sd             =   8.4904823272279E-01
(PID.TID 0000.0001) %MON dynstat_theta_del2           =   8.7052812124070E-07
(PID.TID 0000.0001) %MON dynstat_salt_max             =   3.4700000000000E+01
(PID.TID 0000.0001) %MON dynstat_salt_min             =   3.4000000000000E+01
(PID.TID 0000.0001) %MON dynstat_salt_mean            =   3.4498078177084E+01
(PID.TID 0000.0001) %MON dynstat_salt_sd              =   2.7015237649512E-01
(PID.TID 0000.0001) %MON dynstat_salt_del2            =   3.1219601491702E-07
(PID.TID 0000.0001) %MON advcfl_uvel_max              =   4.2810079288751E-04
(PID.TID 0000.0001) %MON advcfl_vvel_max              =   4.5259343829760E-04
(PID.TID 0000.0001) %MON advcfl_wvel_max              =   7.5309607198295E-04
(PID.TID 0000.0001) %MON advcfl_W_hf_max              =   7.5309607198295E-04
(PID.TID 0000.0001) %MON pe_b_mean                    =  -6.8277395598451E-01
(PID.TID 0000.0001) %MON ke_max                       =   6.0849675394874E-06
(PID.TID 0000.0001) %MON ke_mean                      =   1.7972636461174E-08
(PID.TID 0000.0001) %MON ke_vol                       =   4.6182902955850E+12
(PID.TID 0000.0001) // =======================================================
(PID.TID 0000.0001) // End MONITOR dynamic field statistics
(PID.TID 0000.0001) // =======================================================
(PID.TID 0000.0001) // =======================================================
(PID.TID 0000.0001) // Begin OBCS MONITOR field statistics
(PID.TID 0000.0001) // =======================================================
(PID.TID 0000.0001) %MON obc_N_vVel_max               =  -6.4846716093176E-08
(PID.TID 0000.0001) %MON obc_N_vVel_min               =  -6.4846716093178E-08
(PID.TID 0000.0001) %MON obc_N_vVel_mean              =  -6.4846716093178E-08
(PID.TID 0000.0001) %MON obc_N_vVel_sd                =  -3.7786437360086E-28
(PID.TID 0000.0001) %MON obc_N_vVel_Int               =  -4.2798832621497E+00
(PID.TID 0000.0001) // =======================================================
(PID.TID 0000.0001) // End OBCS MONITOR field statistics
(PID.TID 0000.0001) // =======================================================
 cg2d: Sum(rhs),rhsMax =   3.01184044612840E+00  4.53050648123769E+02
(PID.TID 0000.0001)      cg2d_init_res =   1.47664681619007E-06
(PID.TID 0000.0001)      cg2d_iters(min,last) =      -1      69
(PID.TID 0000.0001)      cg2d_last_res =   8.70529465024108E-12
(PID.TID 0000.0001) // =======================================================
(PID.TID 0000.0001) // Begin MONITOR dynamic field statistics
(PID.TID 0000.0001) // =======================================================
(PID.TID 0000.0001) %MON time_tsnumber                =                   451
(PID.TID 0000.0001) %MON time_secondsf                =   4.5100000000000E+04
(PID.TID 0000.0001) %MON dynstat_eta_max              =   5.7967282863821E+00
(PID.TID 0000.0001) %MON dynstat_eta_min              =  -1.4176359728829E+01
(PID.TID 0000.0001) %MON dynstat_eta_mean             =  -2.5268819743775E+00
(PID.TID 0000.0001) %MON dynstat_eta_sd               =   4.9419153914190E+00
(PID.TID 0000.0001) %MON dynstat_eta_del2             =   1.9058083626394E-01
(PID.TID 0000.0001) %MON dynstat_uvel_max             =   1.9666446769335E-03
(PID.TID 0000.0001) %MON dynstat_uvel_min             =  -4.2960008889086E-03
(PID.TID 0000.0001) %MON dynstat_uvel_mean            =  -1.7237061729268E-09
(PID.TID 0000.0001) %MON dynstat_uvel_sd              =   1.5381603072437E-04
(PID.TID 0000.0001) %MON dynstat_uvel_del2            =   2.8984398090094E-07
(PID.TID 0000.0001) %MON dynstat_vvel_max             =   4.5386726156844E-03
(PID.TID 0000.0001) %MON dynstat_vvel_min             =  -2.0000285740753E-03
(PID.TID 0000.0001) %MON dynstat_vvel_mean            =  -5.1065931574249E-08
(PID.TID 0000.0001) %MON dynstat_vvel_sd              =   1.1353590260143E-04
(PID.TID 0000.0001) %MON dynstat_vvel_del2            =   3.0208911926240E-07
(PID.TID 0000.0001) %MON dynstat_wvel_max             =   1.2634850506515E-04
(PID.TID 0000.0001) %MON dynstat_wvel_min             =  -1.5125407021484E-04
(PID.TID 0000.0001) %MON dynstat_wvel_mean            =   1.5091085575070E-10
(PID.TID 0000.0001) %MON dynstat_wvel_sd              =   1.3869985850180E-05
(PID.TID 0000.0001) %MON dynstat_wvel_del2            =   6.2284318960654E-08
(PID.TID 0000.0001) %MON dynstat_theta_max            =   1.2000000000000E+00
(PID.TID 0000.0001) %MON dynstat_theta_min            =  -1.0000000000000E+00
(PID.TID 0000.0001) %MON dynstat_theta_mean           =   5.6541136424497E-01
(PID.TID 0000.0001) %MON dynstat_theta_sd             =   8.4904817278306E-01
(PID.TID 0000.0001) %MON dynstat_theta_del2           =   8.7015162032940E-07
(PID.TID 0000.0001) %MON dynstat_salt_max             =   3.4700000000000E+01
(PID.TID 0000.0001) %MON dynstat_salt_min             =   3.4000000000000E+01
(PID.TID 0000.0001) %MON dynstat_salt_mean            =   3.4498078084525E+01
(PID.TID 0000.0001) %MON dynstat_salt_sd              =   2.7015235738180E-01
(PID.TID 0000.0001) %MON dynstat_salt_del2            =   3.1229188468530E-07
(PID.TID 0000.0001) %MON advcfl_uvel_max              =   4.2960008889086E-04
(PID.TID 0000.0001) %MON advcfl_vvel_max              =   4.5386726156844E-04
(PID.TID 0000.0001) %MON advcfl_wvel_max              =   7.5627035107422E-04
(PID.TID 0000.0001) %MON advcfl_W_hf_max              =   7.5627035107422E-04
(PID.TID 0000.0001) %MON pe_b_mean                    =  -6.8277338143375E-01
(PID.TID 0000.0001) %MON ke_max                       =   6.1168100994186E-06
(PID.TID 0000.0001) %MON ke_mean                      =   1.8052301866645E-08
(PID.TID 0000.0001) %MON ke_vol                       =   4.6182903083262E+12
(PID.TID 0000.0001) // =======================================================
(PID.TID 0000.0001) // End MONITOR dynamic field statistics
(PID.TID 0000.0001) // =======================================================
(PID.TID 0000.0001) // =======================================================
(PID.TID 0000.0001) // Begin OBCS MONITOR field statistics
(PID.TID 0000.0001) // =======================================================
(PID.TID 0000.0001) %MON obc_N_vVel_max               =  -6.3525927290056E-08
(PID.TID 0000.0001) %MON obc_N_vVel_min               =  -6.3525927290058E-08
(PID.TID 0000.0001) %MON obc_N_vVel_mean              =  -6.3525927290056E-08
(PID.TID 0000.0001) %MON obc_N_vVel_sd                =   1.8924662506115E-14
(PID.TID 0000.0001) %MON obc_N_vVel_Int               =  -4.1927112011437E+00
(PID.TID 0000.0001) // =======================================================
(PID.TID 0000.0001) // End OBCS MONITOR field statistics
(PID.TID 0000.0001) // =======================================================
 cg2d: Sum(rhs),rhsMax =   3.01183795281855E+00  4.53050638251050E+02
(PID.TID 0000.0001)      cg2d_init_res =   1.47627890105913E-06
(PID.TID 0000.0001)      cg2d_iters(min,last) =      -1      69
(PID.TID 0000.0001)      cg2d_last_res =   8.71843706137723E-12
(PID.TID 0000.0001) // =======================================================
(PID.TID 0000.0001) // Begin MONITOR dynamic field statistics
(PID.TID 0000.0001) // =======================================================
(PID.TID 0000.0001) %MON time_tsnumber                =                   452
(PID.TID 0000.0001) %MON time_secondsf                =   4.5200000000000E+04
(PID.TID 0000.0001) %MON dynstat_eta_max              =   5.7967310012155E+00
(PID.TID 0000.0001) %MON dynstat_eta_min              =  -1.4176353884662E+01
(PID.TID 0000.0001) %MON dynstat_eta_mean             =  -2.5268798274688E+00
(PID.TID 0000.0001) %MON dynstat_eta_sd               =   4.9419147086463E+00
(PID.TID 0000.0001) %MON dynstat_eta_del2             =   1.9058083909370E-01
(PID.TID 0000.0001) %MON dynstat_uvel_max             =   1.9696772059064E-03
(PID.TID 0000.0001) %MON dynstat_uvel_min             =  -4.3110258738412E-03
(PID.TID 0000.0001) %MON dynstat_uvel_mean            =  -1.7193104194910E-09
(PID.TID 0000.0001) %MON dynstat_uvel_sd              =   1.5417510142251E-04
(PID.TID 0000.0001) %MON dynstat_uvel_del2            =   2.9007777283077E-07
(PID.TID 0000.0001) %MON dynstat_vvel_max             =   4.5514186125801E-03
(PID.TID 0000.0001) %MON dynstat_vvel_min             =  -2.0003314255090E-03
(PID.TID 0000.0001) %MON dynstat_vvel_mean            =  -5.0123291610536E-08
(PID.TID 0000.0001) %MON dynstat_vvel_sd              =   1.1375762621068E-04
(PID.TID 0000.0001) %MON dynstat_vvel_del2            =   3.0220085241513E-07
(PID.TID 0000.0001) %MON dynstat_wvel_max             =   1.2703632987144E-04
(PID.TID 0000.0001) %MON dynstat_wvel_min             =  -1.5188994261685E-04
(PID.TID 0000.0001) %MON dynstat_wvel_mean            =   1.4882037060414E-10
(PID.TID 0000.0001) %MON dynstat_wvel_sd              =   1.3923914454158E-05
(PID.TID 0000.0001) %MON dynstat_wvel_del2            =   6.2282162755984E-08
(PID.TID 0000.0001) %MON dynstat_theta_max            =   1.2000000000000E+00
(PID.TID 0000.0001) %MON dynstat_theta_min            =  -1.0000000000000E+00
(PID.TID 0000.0001) %MON dynstat_theta_mean           =   5.6541113069673E-01
(PID.TID 0000.0001) %MON dynstat_theta_sd             =   8.4904811259147E-01
(PID.TID 0000.0001) %MON dynstat_theta_del2           =   8.6976045950870E-07
(PID.TID 0000.0001) %MON dynstat_salt_max             =   3.4700000000000E+01
(PID.TID 0000.0001) %MON dynstat_salt_min             =   3.4000000000000E+01
(PID.TID 0000.0001) %MON dynstat_salt_mean            =   3.4498077991897E+01
(PID.TID 0000.0001) %MON dynstat_salt_sd              =   2.7015233817496E-01
(PID.TID 0000.0001) %MON dynstat_salt_del2            =   3.1238457477383E-07
(PID.TID 0000.0001) %MON advcfl_uvel_max              =   4.3110258738412E-04
(PID.TID 0000.0001) %MON advcfl_vvel_max              =   4.5514186125801E-04
(PID.TID 0000.0001) %MON advcfl_wvel_max              =   7.5944971308424E-04
(PID.TID 0000.0001) %MON advcfl_W_hf_max              =   7.5944971308424E-04
(PID.TID 0000.0001) %MON pe_b_mean                    =  -6.8277280632373E-01
(PID.TID 0000.0001) %MON ke_max                       =   6.1487599206020E-06
(PID.TID 0000.0001) %MON ke_mean                      =   1.8131755021984E-08
(PID.TID 0000.0001) %MON ke_vol                       =   4.6182903210722E+12
(PID.TID 0000.0001) // =======================================================
(PID.TID 0000.0001) // End MONITOR dynamic field statistics
(PID.TID 0000.0001) // =======================================================
(PID.TID 0000.0001) // =======================================================
(PID.TID 0000.0001) // Begin OBCS MONITOR field statistics
(PID.TID 0000.0001) // =======================================================
(PID.TID 0000.0001) %MON obc_N_vVel_max               =  -6.2478287920873E-08
(PID.TID 0000.0001) %MON obc_N_vVel_min               =  -6.2478287920875E-08
(PID.TID 0000.0001) %MON obc_N_vVel_mean              =  -6.2478287920875E-08
(PID.TID 0000.0001) %MON obc_N_vVel_sd                =  -1.2306230121448E-28
(PID.TID 0000.0001) %MON obc_N_vVel_Int               =  -4.1235670027777E+00
(PID.TID 0000.0001) // =======================================================
(PID.TID 0000.0001) // End OBCS MONITOR field statistics
(PID.TID 0000.0001) // =======================================================
 cg2d: Sum(rhs),rhsMax =   3.01183545766139E+00  4.53050628395665E+02
(PID.TID 0000.0001)      cg2d_init_res =   1.47590091424941E-06
(PID.TID 0000.0001)      cg2d_iters(min,last) =      -1      69
(PID.TID 0000.0001)      cg2d_last_res =   8.73382965650444E-12
(PID.TID 0000.0001) // =======================================================
(PID.TID 0000.0001) // Begin MONITOR dynamic field statistics
(PID.TID 0000.0001) // =======================================================
(PID.TID 0000.0001) %MON time_tsnumber                =                   453
(PID.TID 0000.0001) %MON time_secondsf                =   4.5300000000000E+04
(PID.TID 0000.0001) %MON dynstat_eta_max              =   5.7967337178660E+00
(PID.TID 0000.0001) %MON dynstat_eta_min              =  -1.4176348038761E+01
(PID.TID 0000.0001) %MON dynstat_eta_mean             =  -2.5268776791071E+00
(PID.TID 0000.0001) %MON dynstat_eta_sd               =   4.9419140251883E+00
(PID.TID 0000.0001) %MON dynstat_eta_del2             =   1.9058084193646E-01
(PID.TID 0000.0001) %MON dynstat_uvel_max             =   1.9727137620524E-03
(PID.TID 0000.0001) %MON dynstat_uvel_min             =  -4.3260830234386E-03
(PID.TID 0000.0001) %MON dynstat_uvel_mean            =  -1.7135678082632E-09
(PID.TID 0000.0001) %MON dynstat_uvel_sd              =   1.5453458951138E-04
(PID.TID 0000.0001) %MON dynstat_uvel_del2            =   2.9031554805547E-07
(PID.TID 0000.0001) %MON dynstat_vvel_max             =   4.5641724671215E-03
(PID.TID 0000.0001) %MON dynstat_vvel_min             =  -2.0005910840366E-03
(PID.TID 0000.0001) %MON dynstat_vvel_mean            =  -4.9527043334436E-08
(PID.TID 0000.0001) %MON dynstat_vvel_sd              =   1.1397264795575E-04
(PID.TID 0000.0001) %MON dynstat_vvel_del2            =   3.0232246584009E-07
(PID.TID 0000.0001) %MON dynstat_wvel_max             =   1.2772584722223E-04
(PID.TID 0000.0001) %MON dynstat_wvel_min             =  -1.5252682829597E-04
(PID.TID 0000.0001) %MON dynstat_wvel_mean            =   1.4654875478707E-10
(PID.TID 0000.0001) %MON dynstat_wvel_sd              =   1.3980056624290E-05
(PID.TID 0000.0001) %MON dynstat_wvel_del2            =   6.2289068847519E-08
(PID.TID 0000.0001) %MON dynstat_theta_max            =   1.2000000000000E+00
(PID.TID 0000.0001) %MON dynstat_theta_min            =  -1.0000000000000E+00
(PID.TID 0000.0001) %MON dynstat_theta_mean           =   5.6541089699813E-01
(PID.TID 0000.0001) %MON dynstat_theta_sd             =   8.4904805214610E-01
(PID.TID 0000.0001) %MON dynstat_theta_del2           =   8.6936176482781E-07
(PID.TID 0000.0001) %MON dynstat_salt_max             =   3.4700000000000E+01
(PID.TID 0000.0001) %MON dynstat_salt_min             =   3.4000000000000E+01
(PID.TID 0000.0001) %MON dynstat_salt_mean            =   3.4498077899200E+01
(PID.TID 0000.0001) %MON dynstat_salt_sd              =   2.7015231887412E-01
(PID.TID 0000.0001) %MON dynstat_salt_del2            =   3.1247601974261E-07
(PID.TID 0000.0001) %MON advcfl_uvel_max              =   4.3260830234386E-04
(PID.TID 0000.0001) %MON advcfl_vvel_max              =   4.5641724671215E-04
(PID.TID 0000.0001) %MON advcfl_wvel_max              =   7.6263414147983E-04
(PID.TID 0000.0001) %MON advcfl_W_hf_max              =   7.6263414147983E-04
(PID.TID 0000.0001) %MON pe_b_mean                    =  -6.8277223057973E-01
(PID.TID 0000.0001) %MON ke_max                       =   6.1808174741552E-06
(PID.TID 0000.0001) %MON ke_mean                      =   1.8210683325641E-08
(PID.TID 0000.0001) %MON ke_vol                       =   4.6182903338248E+12
(PID.TID 0000.0001) // =======================================================
(PID.TID 0000.0001) // End MONITOR dynamic field statistics
(PID.TID 0000.0001) // =======================================================
(PID.TID 0000.0001) // =======================================================
(PID.TID 0000.0001) // Begin OBCS MONITOR field statistics
(PID.TID 0000.0001) // =======================================================
(PID.TID 0000.0001) %MON obc_N_vVel_max               =  -6.1732297536032E-08
(PID.TID 0000.0001) %MON obc_N_vVel_min               =  -6.1732297536032E-08
(PID.TID 0000.0001) %MON obc_N_vVel_mean              =  -6.1732297536032E-08
(PID.TID 0000.0001) %MON obc_N_vVel_sd                =   8.8817841970013E-16
(PID.TID 0000.0001) %MON obc_N_vVel_Int               =  -4.0743316373781E+00
(PID.TID 0000.0001) // =======================================================
(PID.TID 0000.0001) // End OBCS MONITOR field statistics
(PID.TID 0000.0001) // =======================================================
 cg2d: Sum(rhs),rhsMax =   3.01183296024776E+00  4.53050618555229E+02
(PID.TID 0000.0001)      cg2d_init_res =   1.47543386762533E-06
(PID.TID 0000.0001)      cg2d_iters(min,last) =      -1      69
(PID.TID 0000.0001)      cg2d_last_res =   8.75291071855499E-12
(PID.TID 0000.0001) // =======================================================
(PID.TID 0000.0001) // Begin MONITOR dynamic field statistics
(PID.TID 0000.0001) // =======================================================
(PID.TID 0000.0001) %MON time_tsnumber                =                   454
(PID.TID 0000.0001) %MON time_secondsf                =   4.5400000000000E+04
(PID.TID 0000.0001) %MON dynstat_eta_max              =   5.7967364369736E+00
(PID.TID 0000.0001) %MON dynstat_eta_min              =  -1.4176342190419E+01
(PID.TID 0000.0001) %MON dynstat_eta_mean             =  -2.5268755289357E+00
(PID.TID 0000.0001) %MON dynstat_eta_sd               =   4.9419133409238E+00
(PID.TID 0000.0001) %MON dynstat_eta_del2             =   1.9058084479208E-01
(PID.TID 0000.0001) %MON dynstat_uvel_max             =   1.9757544372325E-03
(PID.TID 0000.0001) %MON dynstat_uvel_min             =  -4.3411724779938E-03
(PID.TID 0000.0001) %MON dynstat_uvel_mean            =  -1.7069799712314E-09
(PID.TID 0000.0001) %MON dynstat_uvel_sd              =   1.5489452732952E-04
(PID.TID 0000.0001) %MON dynstat_uvel_del2            =   2.9055730324292E-07
(PID.TID 0000.0001) %MON dynstat_vvel_max             =   4.5769342750592E-03
(PID.TID 0000.0001) %MON dynstat_vvel_min             =  -2.0008075309459E-03
(PID.TID 0000.0001) %MON dynstat_vvel_mean            =  -4.9289673935332E-08
(PID.TID 0000.0001) %MON dynstat_vvel_sd              =   1.1417815088830E-04
(PID.TID 0000.0001) %MON dynstat_vvel_del2            =   3.0245161500689E-07
(PID.TID 0000.0001) %MON dynstat_wvel_max             =   1.2841705685540E-04
(PID.TID 0000.0001) %MON dynstat_wvel_min             =  -1.5316472377657E-04
(PID.TID 0000.0001) %MON dynstat_wvel_mean            =   1.4417354709422E-10
(PID.TID 0000.0001) %MON dynstat_wvel_sd              =   1.4036761033190E-05
(PID.TID 0000.0001) %MON dynstat_wvel_del2            =   6.2301669055031E-08
(PID.TID 0000.0001) %MON dynstat_theta_max            =   1.2000000000000E+00
(PID.TID 0000.0001) %MON dynstat_theta_min            =  -1.0000000000000E+00
(PID.TID 0000.0001) %MON dynstat_theta_mean           =   5.6541066315075E-01
(PID.TID 0000.0001) %MON dynstat_theta_sd             =   8.4904799144934E-01
(PID.TID 0000.0001) %MON dynstat_theta_del2           =   8.6896288808001E-07
(PID.TID 0000.0001) %MON dynstat_salt_max             =   3.4700000000000E+01
(PID.TID 0000.0001) %MON dynstat_salt_min             =   3.4000000000000E+01
(PID.TID 0000.0001) %MON dynstat_salt_mean            =   3.4498077806435E+01
(PID.TID 0000.0001) %MON dynstat_salt_sd              =   2.7015229947994E-01
(PID.TID 0000.0001) %MON dynstat_salt_del2            =   3.1256829897216E-07
(PID.TID 0000.0001) %MON advcfl_uvel_max              =   4.3411724779938E-04
(PID.TID 0000.0001) %MON advcfl_vvel_max              =   4.5769342750592E-04
(PID.TID 0000.0001) %MON advcfl_wvel_max              =   7.6582361888287E-04
(PID.TID 0000.0001) %MON advcfl_W_hf_max              =   7.6582361888287E-04
(PID.TID 0000.0001) %MON pe_b_mean                    =  -6.8277165412500E-01
(PID.TID 0000.0001) %MON ke_max                       =   6.2129832386140E-06
(PID.TID 0000.0001) %MON ke_mean                      =   1.8288766183926E-08
(PID.TID 0000.0001) %MON ke_vol                       =   4.6182903465861E+12
(PID.TID 0000.0001) // =======================================================
(PID.TID 0000.0001) // End MONITOR dynamic field statistics
(PID.TID 0000.0001) // =======================================================
(PID.TID 0000.0001) // =======================================================
(PID.TID 0000.0001) // Begin OBCS MONITOR field statistics
(PID.TID 0000.0001) // =======================================================
(PID.TID 0000.0001) %MON obc_N_vVel_max               =  -6.1306221813882E-08
(PID.TID 0000.0001) %MON obc_N_vVel_min               =  -6.1306221813883E-08
(PID.TID 0000.0001) %MON obc_N_vVel_mean              =  -6.1306221813883E-08
(PID.TID 0000.0001) %MON obc_N_vVel_sd                =  -1.6881623371730E-28
(PID.TID 0000.0001) %MON obc_N_vVel_Int               =  -4.0462106397163E+00
(PID.TID 0000.0001) // =======================================================
(PID.TID 0000.0001) // End OBCS MONITOR field statistics
(PID.TID 0000.0001) // =======================================================
 cg2d: Sum(rhs),rhsMax =   3.01183046015764E+00  4.53050608727663E+02
(PID.TID 0000.0001)      cg2d_init_res =   1.47482432376628E-06
(PID.TID 0000.0001)      cg2d_iters(min,last) =      -1      69
(PID.TID 0000.0001)      cg2d_last_res =   8.77550828485008E-12
(PID.TID 0000.0001) // =======================================================
(PID.TID 0000.0001) // Begin MONITOR dynamic field statistics
(PID.TID 0000.0001) // =======================================================
(PID.TID 0000.0001) %MON time_tsnumber                =                   455
(PID.TID 0000.0001) %MON time_secondsf                =   4.5500000000000E+04
(PID.TID 0000.0001) %MON dynstat_eta_max              =   5.7967391591351E+00
(PID.TID 0000.0001) %MON dynstat_eta_min              =  -1.4176336338963E+01
(PID.TID 0000.0001) %MON dynstat_eta_mean             =  -2.5268733765906E+00
(PID.TID 0000.0001) %MON dynstat_eta_sd               =   4.9419126557440E+00
(PID.TID 0000.0001) %MON dynstat_eta_del2             =   1.9058084766065E-01
(PID.TID 0000.0001) %MON dynstat_uvel_max             =   1.9787993229325E-03
(PID.TID 0000.0001) %MON dynstat_uvel_min             =  -4.3562943782494E-03
(PID.TID 0000.0001) %MON dynstat_uvel_mean            =  -1.7000772303231E-09
(PID.TID 0000.0001) %MON dynstat_uvel_sd              =   1.5525494112996E-04
(PID.TID 0000.0001) %MON dynstat_uvel_del2            =   2.9080303445994E-07
(PID.TID 0000.0001) %MON dynstat_vvel_max             =   4.5897041347573E-03
(PID.TID 0000.0001) %MON dynstat_vvel_min             =  -2.0009807434374E-03
(PID.TID 0000.0001) %MON dynstat_vvel_mean            =  -4.9411907406409E-08
(PID.TID 0000.0001) %MON dynstat_vvel_sd              =   1.1437133178965E-04
(PID.TID 0000.0001) %MON dynstat_vvel_del2            =   3.0258642302163E-07
(PID.TID 0000.0001) %MON dynstat_wvel_max             =   1.2910995862705E-04
(PID.TID 0000.0001) %MON dynstat_wvel_min             =  -1.5380362533290E-04
(PID.TID 0000.0001) %MON dynstat_wvel_mean            =   1.4177468659590E-10
(PID.TID 0000.0001) %MON dynstat_wvel_sd              =   1.4092350780505E-05
(PID.TID 0000.0001) %MON dynstat_wvel_del2            =   6.2317888415313E-08
(PID.TID 0000.0001) %MON dynstat_theta_max            =   1.2000000000000E+00
(PID.TID 0000.0001) %MON dynstat_theta_min            =  -1.0000000000000E+00
(PID.TID 0000.0001) %MON dynstat_theta_mean           =   5.6541042915620E-01
(PID.TID 0000.0001) %MON dynstat_theta_sd             =   8.4904793050954E-01
(PID.TID 0000.0001) %MON dynstat_theta_del2           =   8.6857127775119E-07
(PID.TID 0000.0001) %MON dynstat_salt_max             =   3.4700000000000E+01
(PID.TID 0000.0001) %MON dynstat_salt_min             =   3.4000000000000E+01
(PID.TID 0000.0001) %MON dynstat_salt_mean            =   3.4498077713602E+01
(PID.TID 0000.0001) %MON dynstat_salt_sd              =   2.7015227999525E-01
(PID.TID 0000.0001) %MON dynstat_salt_del2            =   3.1266349970518E-07
(PID.TID 0000.0001) %MON advcfl_uvel_max              =   4.3562943782494E-04
(PID.TID 0000.0001) %MON advcfl_vvel_max              =   4.5897041347573E-04
(PID.TID 0000.0001) %MON advcfl_wvel_max              =   7.6901812666450E-04
(PID.TID 0000.0001) %MON advcfl_W_hf_max              =   7.6901812666450E-04
(PID.TID 0000.0001) %MON pe_b_mean                    =  -6.8277107688391E-01
(PID.TID 0000.0001) %MON ke_max                       =   6.2452577012617E-06
(PID.TID 0000.0001) %MON ke_mean                      =   1.8365681603047E-08
(PID.TID 0000.0001) %MON ke_vol                       =   4.6182903593581E+12
(PID.TID 0000.0001) // =======================================================
(PID.TID 0000.0001) // End MONITOR dynamic field statistics
(PID.TID 0000.0001) // =======================================================
(PID.TID 0000.0001) // =======================================================
(PID.TID 0000.0001) // Begin OBCS MONITOR field statistics
(PID.TID 0000.0001) // =======================================================
(PID.TID 0000.0001) %MON obc_N_vVel_max               =  -6.1207808076815E-08
(PID.TID 0000.0001) %MON obc_N_vVel_min               =  -6.1207808076816E-08
(PID.TID 0000.0001) %MON obc_N_vVel_mean              =  -6.1207808076815E-08
(PID.TID 0000.0001) %MON obc_N_vVel_sd                =   1.2840246461466E-14
(PID.TID 0000.0001) %MON obc_N_vVel_Int               =  -4.0397153330698E+00
(PID.TID 0000.0001) // =======================================================
(PID.TID 0000.0001) // End OBCS MONITOR field statistics
(PID.TID 0000.0001) // =======================================================
 cg2d: Sum(rhs),rhsMax =   3.01182795697285E+00  4.53050598911282E+02
(PID.TID 0000.0001)      cg2d_init_res =   1.47404157651468E-06
(PID.TID 0000.0001)      cg2d_iters(min,last) =      -1      69
(PID.TID 0000.0001)      cg2d_last_res =   8.80338311186782E-12
(PID.TID 0000.0001) // =======================================================
(PID.TID 0000.0001) // Begin MONITOR dynamic field statistics
(PID.TID 0000.0001) // =======================================================
(PID.TID 0000.0001) %MON time_tsnumber                =                   456
(PID.TID 0000.0001) %MON time_secondsf                =   4.5600000000000E+04
(PID.TID 0000.0001) %MON dynstat_eta_max              =   5.7967418849221E+00
(PID.TID 0000.0001) %MON dynstat_eta_min              =  -1.4176330483735E+01
(PID.TID 0000.0001) %MON dynstat_eta_mean             =  -2.5268712217116E+00
(PID.TID 0000.0001) %MON dynstat_eta_sd               =   4.9419119695503E+00
(PID.TID 0000.0001) %MON dynstat_eta_del2             =   1.9058085054220E-01
(PID.TID 0000.0001) %MON dynstat_uvel_max             =   1.9818485098284E-03
(PID.TID 0000.0001) %MON dynstat_uvel_min             =  -4.3714488655029E-03
(PID.TID 0000.0001) %MON dynstat_uvel_mean            =  -1.6933912504182E-09
(PID.TID 0000.0001) %MON dynstat_uvel_sd              =   1.5561585035829E-04
(PID.TID 0000.0001) %MON dynstat_uvel_del2            =   2.9105273671191E-07
(PID.TID 0000.0001) %MON dynstat_vvel_max             =   4.6024821466846E-03
(PID.TID 0000.0001) %MON dynstat_vvel_min             =  -2.0011106930253E-03
(PID.TID 0000.0001) %MON dynstat_vvel_mean            =  -4.9882885445046E-08
(PID.TID 0000.0001) %MON dynstat_vvel_sd              =   1.1454945863651E-04
(PID.TID 0000.0001) %MON dynstat_vvel_del2            =   3.0272552159476E-07
(PID.TID 0000.0001) %MON dynstat_wvel_max             =   1.2980455240922E-04
(PID.TID 0000.0001) %MON dynstat_wvel_min             =  -1.5444352936061E-04
(PID.TID 0000.0001) %MON dynstat_wvel_mean            =   1.3943273161250E-10
(PID.TID 0000.0001) %MON dynstat_wvel_sd              =   1.4145155596203E-05
(PID.TID 0000.0001) %MON dynstat_wvel_del2            =   6.2336993818372E-08
(PID.TID 0000.0001) %MON dynstat_theta_max            =   1.2000000000000E+00
(PID.TID 0000.0001) %MON dynstat_theta_min            =  -1.0000000000000E+00
(PID.TID 0000.0001) %MON dynstat_theta_mean           =   5.6541019501599E-01
(PID.TID 0000.0001) %MON dynstat_theta_sd             =   8.4904786934974E-01
(PID.TID 0000.0001) %MON dynstat_theta_del2           =   8.6819430422741E-07
(PID.TID 0000.0001) %MON dynstat_salt_max             =   3.4700000000000E+01
(PID.TID 0000.0001) %MON dynstat_salt_min             =   3.4000000000000E+01
(PID.TID 0000.0001) %MON dynstat_salt_mean            =   3.4498077620702E+01
(PID.TID 0000.0001) %MON dynstat_salt_sd              =   2.7015226042722E-01
(PID.TID 0000.0001) %MON dynstat_salt_del2            =   3.1276367685746E-07
(PID.TID 0000.0001) %MON advcfl_uvel_max              =   4.3714488655029E-04
(PID.TID 0000.0001) %MON advcfl_vvel_max              =   4.6024821466846E-04
(PID.TID 0000.0001) %MON advcfl_wvel_max              =   7.7221764680306E-04
(PID.TID 0000.0001) %MON advcfl_W_hf_max              =   7.7221764680306E-04
(PID.TID 0000.0001) %MON pe_b_mean                    =  -6.8277049878376E-01
(PID.TID 0000.0001) %MON ke_max                       =   6.2776413566148E-06
(PID.TID 0000.0001) %MON ke_mean                      =   1.8441112970715E-08
(PID.TID 0000.0001) %MON ke_vol                       =   4.6182903721431E+12
(PID.TID 0000.0001) // =======================================================
(PID.TID 0000.0001) // End MONITOR dynamic field statistics
(PID.TID 0000.0001) // =======================================================
(PID.TID 0000.0001) // =======================================================
(PID.TID 0000.0001) // Begin OBCS MONITOR field statistics
(PID.TID 0000.0001) // =======================================================
(PID.TID 0000.0001) %MON obc_N_vVel_max               =  -6.1434195973206E-08
(PID.TID 0000.0001) %MON obc_N_vVel_min               =  -6.1434195973207E-08
(PID.TID 0000.0001) %MON obc_N_vVel_mean              =  -6.1434195973207E-08
(PID.TID 0000.0001) %MON obc_N_vVel_sd                =  -1.8222686910605E-28
(PID.TID 0000.0001) %MON obc_N_vVel_Int               =  -4.0546569342316E+00
(PID.TID 0000.0001) // =======================================================
(PID.TID 0000.0001) // End OBCS MONITOR field statistics
(PID.TID 0000.0001) // =======================================================
 cg2d: Sum(rhs),rhsMax =   3.01182545028956E+00  4.53050589104850E+02
(PID.TID 0000.0001)      cg2d_init_res =   1.47309029114104E-06
(PID.TID 0000.0001)      cg2d_iters(min,last) =      -1      69
(PID.TID 0000.0001)      cg2d_last_res =   8.83287055836964E-12
(PID.TID 0000.0001) // =======================================================
(PID.TID 0000.0001) // Begin MONITOR dynamic field statistics
(PID.TID 0000.0001) // =======================================================
(PID.TID 0000.0001) %MON time_tsnumber                =                   457
(PID.TID 0000.0001) %MON time_secondsf                =   4.5700000000000E+04
(PID.TID 0000.0001) %MON dynstat_eta_max              =   5.7967446148600E+00
(PID.TID 0000.0001) %MON dynstat_eta_min              =  -1.4176324624117E+01
(PID.TID 0000.0001) %MON dynstat_eta_mean             =  -2.5268690639531E+00
(PID.TID 0000.0001) %MON dynstat_eta_sd               =   4.9419112822555E+00
(PID.TID 0000.0001) %MON dynstat_eta_del2             =   1.9058085343683E-01
(PID.TID 0000.0001) %MON dynstat_uvel_max             =   1.9849020879761E-03
(PID.TID 0000.0001) %MON dynstat_uvel_min             =  -4.3866360816480E-03
(PID.TID 0000.0001) %MON dynstat_uvel_mean            =  -1.6874461596264E-09
(PID.TID 0000.0001) %MON dynstat_uvel_sd              =   1.5597726699164E-04
(PID.TID 0000.0001) %MON dynstat_uvel_del2            =   2.9130640341588E-07
(PID.TID 0000.0001) %MON dynstat_vvel_max             =   4.6152684136815E-03
(PID.TID 0000.0001) %MON dynstat_vvel_min             =  -2.0011973493590E-03
(PID.TID 0000.0001) %MON dynstat_vvel_mean            =  -5.0680689595347E-08
(PID.TID 0000.0001) %MON dynstat_vvel_sd              =   1.1470992717102E-04
(PID.TID 0000.0001) %MON dynstat_vvel_del2            =   3.0286798710905E-07
(PID.TID 0000.0001) %MON dynstat_wvel_max             =   1.3050083789082E-04
(PID.TID 0000.0001) %MON dynstat_wvel_min             =  -1.5508443255073E-04
(PID.TID 0000.0001) %MON dynstat_wvel_mean            =   1.3722507889092E-10
(PID.TID 0000.0001) %MON dynstat_wvel_sd              =   1.4193531581407E-05
(PID.TID 0000.0001) %MON dynstat_wvel_del2            =   6.2359400538894E-08
(PID.TID 0000.0001) %MON dynstat_theta_max            =   1.2000000000000E+00
(PID.TID 0000.0001) %MON dynstat_theta_min            =  -1.0000000000000E+00
(PID.TID 0000.0001) %MON dynstat_theta_mean           =   5.6540996073146E-01
(PID.TID 0000.0001) %MON dynstat_theta_sd             =   8.4904780798488E-01
(PID.TID 0000.0001) %MON dynstat_theta_del2           =   8.6783954453694E-07
(PID.TID 0000.0001) %MON dynstat_salt_max             =   3.4700000000000E+01
(PID.TID 0000.0001) %MON dynstat_salt_min             =   3.4000000000000E+01
(PID.TID 0000.0001) %MON dynstat_salt_mean            =   3.4498077527735E+01
(PID.TID 0000.0001) %MON dynstat_salt_sd              =   2.7015224078075E-01
(PID.TID 0000.0001) %MON dynstat_salt_del2            =   3.1287092883954E-07
(PID.TID 0000.0001) %MON advcfl_uvel_max              =   4.3866360816480E-04
(PID.TID 0000.0001) %MON advcfl_vvel_max              =   4.6152684136815E-04
(PID.TID 0000.0001) %MON advcfl_wvel_max              =   7.7542216275366E-04
(PID.TID 0000.0001) %MON advcfl_W_hf_max              =   7.7542216275366E-04
(PID.TID 0000.0001) %MON pe_b_mean                    =  -6.8276991975720E-01
(PID.TID 0000.0001) %MON ke_max                       =   6.3101347072946E-06
(PID.TID 0000.0001) %MON ke_mean                      =   1.8514755873746E-08
(PID.TID 0000.0001) %MON ke_vol                       =   4.6182903849430E+12
(PID.TID 0000.0001) // =======================================================
(PID.TID 0000.0001) // End MONITOR dynamic field statistics
(PID.TID 0000.0001) // =======================================================
(PID.TID 0000.0001) // =======================================================
(PID.TID 0000.0001) // Begin OBCS MONITOR field statistics
(PID.TID 0000.0001) // =======================================================
(PID.TID 0000.0001) %MON obc_N_vVel_max               =  -6.1972012128731E-08
(PID.TID 0000.0001) %MON obc_N_vVel_min               =  -6.1972012128731E-08
(PID.TID 0000.0001) %MON obc_N_vVel_mean              =  -6.1972012128731E-08
(PID.TID 0000.0001) %MON obc_N_vVel_sd                =  -9.3085586816079E-29
(PID.TID 0000.0001) %MON obc_N_vVel_Int               =  -4.0901528004962E+00
(PID.TID 0000.0001) // =======================================================
(PID.TID 0000.0001) // End OBCS MONITOR field statistics
(PID.TID 0000.0001) // =======================================================
 cg2d: Sum(rhs),rhsMax =   3.01182293972850E+00  4.53050579307583E+02
(PID.TID 0000.0001)      cg2d_init_res =   1.47199486091813E-06
(PID.TID 0000.0001)      cg2d_iters(min,last) =      -1      69
(PID.TID 0000.0001)      cg2d_last_res =   8.85905885880893E-12
(PID.TID 0000.0001) // =======================================================
(PID.TID 0000.0001) // Begin MONITOR dynamic field statistics
(PID.TID 0000.0001) // =======================================================
(PID.TID 0000.0001) %MON time_tsnumber                =                   458
(PID.TID 0000.0001) %MON time_secondsf                =   4.5800000000000E+04
(PID.TID 0000.0001) %MON dynstat_eta_max              =   5.7967473494187E+00
(PID.TID 0000.0001) %MON dynstat_eta_min              =  -1.4176318759566E+01
(PID.TID 0000.0001) %MON dynstat_eta_mean             =  -2.5268669029923E+00
(PID.TID 0000.0001) %MON dynstat_eta_sd               =   4.9419105937919E+00
(PID.TID 0000.0001) %MON dynstat_eta_del2             =   1.9058085634480E-01
(PID.TID 0000.0001) %MON dynstat_uvel_max             =   1.9879601466446E-03
(PID.TID 0000.0001) %MON dynstat_uvel_min             =  -4.4018561689168E-03
(PID.TID 0000.0001) %MON dynstat_uvel_mean            =  -1.6827421881357E-09
(PID.TID 0000.0001) %MON dynstat_uvel_sd              =   1.5633919492690E-04
(PID.TID 0000.0001) %MON dynstat_uvel_del2            =   2.9156402553228E-07
(PID.TID 0000.0001) %MON dynstat_vvel_max             =   4.6280630406745E-03
(PID.TID 0000.0001) %MON dynstat_vvel_min             =  -2.0012406779601E-03
(PID.TID 0000.0001) %MON dynstat_vvel_mean            =  -5.1773224919646E-08
(PID.TID 0000.0001) %MON dynstat_vvel_sd              =   1.1485031636195E-04
(PID.TID 0000.0001) %MON dynstat_vvel_del2            =   3.0301318838235E-07
(PID.TID 0000.0001) %MON dynstat_wvel_max             =   1.3119881483863E-04
(PID.TID 0000.0001) %MON dynstat_wvel_min             =  -1.5572633160875E-04
(PID.TID 0000.0001) %MON dynstat_wvel_mean            =   1.3522247682040E-10
(PID.TID 0000.0001) %MON dynstat_wvel_sd              =   1.4235870779658E-05
(PID.TID 0000.0001) %MON dynstat_wvel_del2            =   6.2386270056840E-08
(PID.TID 0000.0001) %MON dynstat_theta_max            =   1.2000000000000E+00
(PID.TID 0000.0001) %MON dynstat_theta_min            =  -1.0000000000000E+00
(PID.TID 0000.0001) %MON dynstat_theta_mean           =   5.6540972630352E-01
(PID.TID 0000.0001) %MON dynstat_theta_sd             =   8.4904774641963E-01
(PID.TID 0000.0001) %MON dynstat_theta_del2           =   8.6751487169741E-07
(PID.TID 0000.0001) %MON dynstat_salt_max             =   3.4700000000000E+01
(PID.TID 0000.0001) %MON dynstat_salt_min             =   3.4000000000000E+01
(PID.TID 0000.0001) %MON dynstat_salt_mean            =   3.4498077434702E+01
(PID.TID 0000.0001) %MON dynstat_salt_sd              =   2.7015222105719E-01
(PID.TID 0000.0001) %MON dynstat_salt_del2            =   3.1298744716203E-07
(PID.TID 0000.0001) %MON advcfl_uvel_max              =   4.4018561689168E-04
(PID.TID 0000.0001) %MON advcfl_vvel_max              =   4.6280630406745E-04
(PID.TID 0000.0001) %MON advcfl_wvel_max              =   7.7863165804373E-04
(PID.TID 0000.0001) %MON advcfl_W_hf_max              =   7.7863165804373E-04
(PID.TID 0000.0001) %MON pe_b_mean                    =  -6.8276933974357E-01
(PID.TID 0000.0001) %MON ke_max                       =   6.3427382632762E-06
(PID.TID 0000.0001) %MON ke_mean                      =   1.8586324898471E-08
(PID.TID 0000.0001) %MON ke_vol                       =   4.6182903977601E+12
(PID.TID 0000.0001) // =======================================================
(PID.TID 0000.0001) // End MONITOR dynamic field statistics
(PID.TID 0000.0001) // =======================================================
(PID.TID 0000.0001) // =======================================================
(PID.TID 0000.0001) // Begin OBCS MONITOR field statistics
(PID.TID 0000.0001) // =======================================================
(PID.TID 0000.0001) %MON obc_N_vVel_max               =  -6.2797958434458E-08
(PID.TID 0000.0001) %MON obc_N_vVel_min               =  -6.2797958434459E-08
(PID.TID 0000.0001) %MON obc_N_vVel_mean              =  -6.2797958434458E-08
(PID.TID 0000.0001) %MON obc_N_vVel_sd                =   7.5885997444281E-15
(PID.TID 0000.0001) %MON obc_N_vVel_Int               =  -4.1446652566742E+00
(PID.TID 0000.0001) // =======================================================
(PID.TID 0000.0001) // End OBCS MONITOR field statistics
(PID.TID 0000.0001) // =======================================================
 cg2d: Sum(rhs),rhsMax =   3.01182042495134E+00  4.53050569519112E+02
(PID.TID 0000.0001)      cg2d_init_res =   1.47081934439892E-06
(PID.TID 0000.0001)      cg2d_iters(min,last) =      -1      69
(PID.TID 0000.0001)      cg2d_last_res =   8.88545266137253E-12
(PID.TID 0000.0001) // =======================================================
(PID.TID 0000.0001) // Begin MONITOR dynamic field statistics
(PID.TID 0000.0001) // =======================================================
(PID.TID 0000.0001) %MON time_tsnumber                =                   459
(PID.TID 0000.0001) %MON time_secondsf                =   4.5900000000000E+04
(PID.TID 0000.0001) %MON dynstat_eta_max              =   5.7967500889741E+00
(PID.TID 0000.0001) %MON dynstat_eta_min              =  -1.4176312889630E+01
(PID.TID 0000.0001) %MON dynstat_eta_mean             =  -2.5268647385435E+00
(PID.TID 0000.0001) %MON dynstat_eta_sd               =   4.9419099041073E+00
(PID.TID 0000.0001) %MON dynstat_eta_del2             =   1.9058085926617E-01
(PID.TID 0000.0001) %MON dynstat_uvel_max             =   1.9910227744475E-03
(PID.TID 0000.0001) %MON dynstat_uvel_min             =  -4.4171092695651E-03
(PID.TID 0000.0001) %MON dynstat_uvel_mean            =  -1.6797381583012E-09
(PID.TID 0000.0001) %MON dynstat_uvel_sd              =   1.5670162947772E-04
(PID.TID 0000.0001) %MON dynstat_uvel_del2            =   2.9182559083280E-07
(PID.TID 0000.0001) %MON dynstat_vvel_max             =   4.6408661344008E-03
(PID.TID 0000.0001) %MON dynstat_vvel_min             =  -2.0012406421861E-03
(PID.TID 0000.0001) %MON dynstat_vvel_mean            =  -5.3119450776112E-08
(PID.TID 0000.0001) %MON dynstat_vvel_sd              =   1.1496844222918E-04
(PID.TID 0000.0001) %MON dynstat_vvel_del2            =   3.0316057397552E-07
(PID.TID 0000.0001) %MON dynstat_wvel_max             =   1.3189848323165E-04
(PID.TID 0000.0001) %MON dynstat_wvel_min             =  -1.5636922310517E-04
(PID.TID 0000.0001) %MON dynstat_wvel_mean            =   1.3348751912191E-10
(PID.TID 0000.0001) %MON dynstat_wvel_sd              =   1.4270604026828E-05
(PID.TID 0000.0001) %MON dynstat_wvel_del2            =   6.2418964131440E-08
(PID.TID 0000.0001) %MON dynstat_theta_max            =   1.2000000000000E+00
(PID.TID 0000.0001) %MON dynstat_theta_min            =  -1.0000000000000E+00
(PID.TID 0000.0001) %MON dynstat_theta_mean           =   5.6540949173306E-01
(PID.TID 0000.0001) %MON dynstat_theta_sd             =   8.4904768465305E-01
(PID.TID 0000.0001) %MON dynstat_theta_del2           =   8.6722841348915E-07
(PID.TID 0000.0001) %MON dynstat_salt_max             =   3.4700000000000E+01
(PID.TID 0000.0001) %MON dynstat_salt_min             =   3.4000000000000E+01
(PID.TID 0000.0001) %MON dynstat_salt_mean            =   3.4498077341603E+01
(PID.TID 0000.0001) %MON dynstat_salt_sd              =   2.7015220125624E-01
(PID.TID 0000.0001) %MON dynstat_salt_del2            =   3.1311548488372E-07
(PID.TID 0000.0001) %MON advcfl_uvel_max              =   4.4171092695651E-04
(PID.TID 0000.0001) %MON advcfl_vvel_max              =   4.6408661344008E-04
(PID.TID 0000.0001) %MON advcfl_wvel_max              =   7.8184611552587E-04
(PID.TID 0000.0001) %MON advcfl_W_hf_max              =   7.8184611552587E-04
(PID.TID 0000.0001) %MON pe_b_mean                    =  -6.8276875869127E-01
(PID.TID 0000.0001) %MON ke_max                       =   6.3754525414493E-06
(PID.TID 0000.0001) %MON ke_mean                      =   1.8655560328579E-08
(PID.TID 0000.0001) %MON ke_vol                       =   4.6182904105962E+12
(PID.TID 0000.0001) // =======================================================
(PID.TID 0000.0001) // End MONITOR dynamic field statistics
(PID.TID 0000.0001) // =======================================================
(PID.TID 0000.0001) // =======================================================
(PID.TID 0000.0001) // Begin OBCS MONITOR field statistics
(PID.TID 0000.0001) // =======================================================
(PID.TID 0000.0001) %MON obc_N_vVel_max               =  -6.3879880803262E-08
(PID.TID 0000.0001) %MON obc_N_vVel_min               =  -6.3879880803263E-08
(PID.TID 0000.0001) %MON obc_N_vVel_mean              =  -6.3879880803263E-08
(PID.TID 0000.0001) %MON obc_N_vVel_sd                =  -2.1062586169401E-28
(PID.TID 0000.0001) %MON obc_N_vVel_Int               =  -4.2160721330153E+00
(PID.TID 0000.0001) // =======================================================
(PID.TID 0000.0001) // End OBCS MONITOR field statistics
(PID.TID 0000.0001) // =======================================================
 cg2d: Sum(rhs),rhsMax =   3.01181790567114E+00  4.53050559739465E+02
(PID.TID 0000.0001)      cg2d_init_res =   1.46964883805224E-06
(PID.TID 0000.0001)      cg2d_iters(min,last) =      -1      69
(PID.TID 0000.0001)      cg2d_last_res =   8.91914975605376E-12
(PID.TID 0000.0001) // =======================================================
(PID.TID 0000.0001) // Begin MONITOR dynamic field statistics
(PID.TID 0000.0001) // =======================================================
(PID.TID 0000.0001) %MON time_tsnumber                =                   460
(PID.TID 0000.0001) %MON time_secondsf                =   4.6000000000000E+04
(PID.TID 0000.0001) %MON dynstat_eta_max              =   5.7967528337955E+00
(PID.TID 0000.0001) %MON dynstat_eta_min              =  -1.4176307013986E+01
(PID.TID 0000.0001) %MON dynstat_eta_mean             =  -2.5268625703660E+00
(PID.TID 0000.0001) %MON dynstat_eta_sd               =   4.9419092131688E+00
(PID.TID 0000.0001) %MON dynstat_eta_del2             =   1.9058086220107E-01
(PID.TID 0000.0001) %MON dynstat_uvel_max             =   1.9940900591209E-03
(PID.TID 0000.0001) %MON dynstat_uvel_min             =  -4.4323955259724E-03
(PID.TID 0000.0001) %MON dynstat_uvel_mean            =  -1.6788304321832E-09
(PID.TID 0000.0001) %MON dynstat_uvel_sd              =   1.5706455698476E-04
(PID.TID 0000.0001) %MON dynstat_uvel_del2            =   2.9209108325406E-07
(PID.TID 0000.0001) %MON dynstat_vvel_max             =   4.6536778028847E-03
(PID.TID 0000.0001) %MON dynstat_vvel_min             =  -2.0011972037004E-03
(PID.TID 0000.0001) %MON dynstat_vvel_mean            =  -5.4670914295442E-08
(PID.TID 0000.0001) %MON dynstat_vvel_sd              =   1.1506241018566E-04
(PID.TID 0000.0001) %MON dynstat_vvel_del2            =   3.0330943367991E-07
(PID.TID 0000.0001) %MON dynstat_wvel_max             =   1.3259984316776E-04
(PID.TID 0000.0001) %MON dynstat_wvel_min             =  -1.5701310350617E-04
(PID.TID 0000.0001) %MON dynstat_wvel_mean            =   1.3207462160428E-10
(PID.TID 0000.0001) %MON dynstat_wvel_sd              =   1.4296201576313E-05
(PID.TID 0000.0001) %MON dynstat_wvel_del2            =   6.2458433515258E-08
(PID.TID 0000.0001) %MON dynstat_theta_max            =   1.2000000000000E+00
(PID.TID 0000.0001) %MON dynstat_theta_min            =  -1.0000000000000E+00
(PID.TID 0000.0001) %MON dynstat_theta_mean           =   5.6540925702099E-01
(PID.TID 0000.0001) %MON dynstat_theta_sd             =   8.4904762268717E-01
(PID.TID 0000.0001) %MON dynstat_theta_del2           =   8.6698868444483E-07
(PID.TID 0000.0001) %MON dynstat_salt_max             =   3.4700000000000E+01
(PID.TID 0000.0001) %MON dynstat_salt_min             =   3.4000000000000E+01
(PID.TID 0000.0001) %MON dynstat_salt_mean            =   3.4498077248437E+01
(PID.TID 0000.0001) %MON dynstat_salt_sd              =   2.7015218137866E-01
(PID.TID 0000.0001) %MON dynstat_salt_del2            =   3.1325739308202E-07
(PID.TID 0000.0001) %MON advcfl_uvel_max              =   4.4323955259724E-04
(PID.TID 0000.0001) %MON advcfl_vvel_max              =   4.6536778028847E-04
(PID.TID 0000.0001) %MON advcfl_wvel_max              =   7.8506551753086E-04
(PID.TID 0000.0001) %MON advcfl_W_hf_max              =   7.8506551753086E-04
(PID.TID 0000.0001) %MON pe_b_mean                    =  -6.8276817655951E-01
(PID.TID 0000.0001) %MON ke_max                       =   6.4082780642367E-06
(PID.TID 0000.0001) %MON ke_mean                      =   1.8722234718164E-08
(PID.TID 0000.0001) %MON ke_vol                       =   4.6182904234531E+12
(PID.TID 0000.0001) // =======================================================
(PID.TID 0000.0001) // End MONITOR dynamic field statistics
(PID.TID 0000.0001) // =======================================================
(PID.TID 0000.0001) // =======================================================
(PID.TID 0000.0001) // Begin OBCS MONITOR field statistics
(PID.TID 0000.0001) // =======================================================
(PID.TID 0000.0001) %MON obc_N_vVel_max               =  -6.5178065473948E-08
(PID.TID 0000.0001) %MON obc_N_vVel_min               =  -6.5178065473950E-08
(PID.TID 0000.0001) %MON obc_N_vVel_mean              =  -6.5178065473948E-08
(PID.TID 0000.0001) %MON obc_N_vVel_sd                =   1.2306961192855E-14
(PID.TID 0000.0001) %MON obc_N_vVel_Int               =  -4.3017523212806E+00
(PID.TID 0000.0001) // =======================================================
(PID.TID 0000.0001) // End OBCS MONITOR field statistics
(PID.TID 0000.0001) // =======================================================
 cg2d: Sum(rhs),rhsMax =   3.01181538165674E+00  4.53050549969024E+02
(PID.TID 0000.0001)      cg2d_init_res =   1.46855470616928E-06
(PID.TID 0000.0001)      cg2d_iters(min,last) =      -1      69
(PID.TID 0000.0001)      cg2d_last_res =   8.95961024124114E-12
(PID.TID 0000.0001) // =======================================================
(PID.TID 0000.0001) // Begin MONITOR dynamic field statistics
(PID.TID 0000.0001) // =======================================================
(PID.TID 0000.0001) %MON time_tsnumber                =                   461
(PID.TID 0000.0001) %MON time_secondsf                =   4.6100000000000E+04
(PID.TID 0000.0001) %MON dynstat_eta_max              =   5.7967555840415E+00
(PID.TID 0000.0001) %MON dynstat_eta_min              =  -1.4176301132440E+01
(PID.TID 0000.0001) %MON dynstat_eta_mean             =  -2.5268603982681E+00
(PID.TID 0000.0001) %MON dynstat_eta_sd               =   4.9419085209732E+00
(PID.TID 0000.0001) %MON dynstat_eta_del2             =   1.9058086515015E-01
(PID.TID 0000.0001) %MON dynstat_uvel_max             =   1.9971620877470E-03
(PID.TID 0000.0001) %MON dynstat_uvel_min             =  -4.4477150805928E-03
(PID.TID 0000.0001) %MON dynstat_uvel_mean            =  -1.6803336950182E-09
(PID.TID 0000.0001) %MON dynstat_uvel_sd              =   1.5742795455328E-04
(PID.TID 0000.0001) %MON dynstat_uvel_del2            =   2.9236048223803E-07
(PID.TID 0000.0001) %MON dynstat_vvel_max             =   4.6664981552247E-03
(PID.TID 0000.0001) %MON dynstat_vvel_min             =  -2.0011103232340E-03
(PID.TID 0000.0001) %MON dynstat_vvel_mean            =  -5.6373451500872E-08
(PID.TID 0000.0001) %MON dynstat_vvel_sd              =   1.1513066585409E-04
(PID.TID 0000.0001) %MON dynstat_vvel_del2            =   3.0345867127648E-07
(PID.TID 0000.0001) %MON dynstat_wvel_max             =   1.3330289469670E-04
(PID.TID 0000.0001) %MON dynstat_wvel_min             =  -1.5765796924651E-04
(PID.TID 0000.0001) %MON dynstat_wvel_mean            =   1.3102622535564E-10
(PID.TID 0000.0001) %MON dynstat_wvel_sd              =   1.4311175981833E-05
(PID.TID 0000.0001) %MON dynstat_wvel_del2            =   6.2504627668741E-08
(PID.TID 0000.0001) %MON dynstat_theta_max            =   1.2000000000000E+00
(PID.TID 0000.0001) %MON dynstat_theta_min            =  -1.0000000000000E+00
(PID.TID 0000.0001) %MON dynstat_theta_mean           =   5.6540902216782E-01
(PID.TID 0000.0001) %MON dynstat_theta_sd             =   8.4904756050121E-01
(PID.TID 0000.0001) %MON dynstat_theta_del2           =   8.6680461611060E-07
(PID.TID 0000.0001) %MON dynstat_salt_max             =   3.4700000000000E+01
(PID.TID 0000.0001) %MON dynstat_salt_min             =   3.4000000000000E+01
(PID.TID 0000.0001) %MON dynstat_salt_mean            =   3.4498077155206E+01
(PID.TID 0000.0001) %MON dynstat_salt_sd              =   2.7015216141773E-01
(PID.TID 0000.0001) %MON dynstat_salt_del2            =   3.1341563082232E-07
(PID.TID 0000.0001) %MON advcfl_uvel_max              =   4.4477150805928E-04
(PID.TID 0000.0001) %MON advcfl_vvel_max              =   4.6664981552247E-04
(PID.TID 0000.0001) %MON advcfl_wvel_max              =   7.8828984623254E-04
(PID.TID 0000.0001) %MON advcfl_W_hf_max              =   7.8828984623254E-04
(PID.TID 0000.0001) %MON pe_b_mean                    =  -6.8276759331933E-01
(PID.TID 0000.0001) %MON ke_max                       =   6.4412153593624E-06
(PID.TID 0000.0001) %MON ke_mean                      =   1.8786159293626E-08
(PID.TID 0000.0001) %MON ke_vol                       =   4.6182904363320E+12
(PID.TID 0000.0001) // =======================================================
(PID.TID 0000.0001) // End MONITOR dynamic field statistics
(PID.TID 0000.0001) // =======================================================
(PID.TID 0000.0001) // =======================================================
(PID.TID 0000.0001) // Begin OBCS MONITOR field statistics
(PID.TID 0000.0001) // =======================================================
(PID.TID 0000.0001) %MON obc_N_vVel_max               =  -6.6646458387923E-08
(PID.TID 0000.0001) %MON obc_N_vVel_min               =  -6.6646458387925E-08
(PID.TID 0000.0001) %MON obc_N_vVel_mean              =  -6.6646458387923E-08
(PID.TID 0000.0001) %MON obc_N_vVel_sd                =   1.9173136984672E-14
(PID.TID 0000.0001) %MON obc_N_vVel_Int               =  -4.3986662536029E+00
(PID.TID 0000.0001) // =======================================================
(PID.TID 0000.0001) // End OBCS MONITOR field statistics
(PID.TID 0000.0001) // =======================================================
 cg2d: Sum(rhs),rhsMax =   3.01181285274446E+00  4.53050540208447E+02
(PID.TID 0000.0001)      cg2d_init_res =   1.46758897650802E-06
(PID.TID 0000.0001)      cg2d_iters(min,last) =      -1      69
(PID.TID 0000.0001)      cg2d_last_res =   8.99977372447951E-12
(PID.TID 0000.0001) // =======================================================
(PID.TID 0000.0001) // Begin MONITOR dynamic field statistics
(PID.TID 0000.0001) // =======================================================
(PID.TID 0000.0001) %MON time_tsnumber                =                   462
(PID.TID 0000.0001) %MON time_secondsf                =   4.6200000000000E+04
(PID.TID 0000.0001) %MON dynstat_eta_max              =   5.7967583397583E+00
(PID.TID 0000.0001) %MON dynstat_eta_min              =  -1.4176295244931E+01
(PID.TID 0000.0001) %MON dynstat_eta_mean             =  -2.5268582221160E+00
(PID.TID 0000.0001) %MON dynstat_eta_sd               =   4.9419078275325E+00
(PID.TID 0000.0001) %MON dynstat_eta_del2             =   1.9058086811355E-01
(PID.TID 0000.0001) %MON dynstat_uvel_max             =   2.0002389467901E-03
(PID.TID 0000.0001) %MON dynstat_uvel_min             =  -4.4630680760394E-03
(PID.TID 0000.0001) %MON dynstat_uvel_mean            =  -1.6844653576987E-09
(PID.TID 0000.0001) %MON dynstat_uvel_sd              =   1.5779178992769E-04
(PID.TID 0000.0001) %MON dynstat_uvel_del2            =   2.9263376225336E-07
(PID.TID 0000.0001) %MON dynstat_vvel_max             =   4.6793273016843E-03
(PID.TID 0000.0001) %MON dynstat_vvel_min             =  -2.0009799617622E-03
(PID.TID 0000.0001) %MON dynstat_vvel_mean            =  -5.8169066672863E-08
(PID.TID 0000.0001) %MON dynstat_vvel_sd              =   1.1517204442202E-04
(PID.TID 0000.0001) %MON dynstat_vvel_del2            =   3.0360663016724E-07
(PID.TID 0000.0001) %MON dynstat_wvel_max             =   1.3400763783792E-04
(PID.TID 0000.0001) %MON dynstat_wvel_min             =  -1.5830381678870E-04
(PID.TID 0000.0001) %MON dynstat_wvel_mean            =   1.3037194982478E-10
(PID.TID 0000.0001) %MON dynstat_wvel_sd              =   1.4314092158947E-05
(PID.TID 0000.0001) %MON dynstat_wvel_del2            =   6.2556019211131E-08
(PID.TID 0000.0001) %MON dynstat_theta_max            =   1.2000000000000E+00
(PID.TID 0000.0001) %MON dynstat_theta_min            =  -1.0000000000000E+00
(PID.TID 0000.0001) %MON dynstat_theta_mean           =   5.6540878717415E-01
(PID.TID 0000.0001) %MON dynstat_theta_sd             =   8.4904749808984E-01
(PID.TID 0000.0001) %MON dynstat_theta_del2           =   8.6668538026387E-07
(PID.TID 0000.0001) %MON dynstat_salt_max             =   3.4700000000000E+01
(PID.TID 0000.0001) %MON dynstat_salt_min             =   3.4000000000000E+01
(PID.TID 0000.0001) %MON dynstat_salt_mean            =   3.4498077061909E+01
(PID.TID 0000.0001) %MON dynstat_salt_sd              =   2.7015214137169E-01
(PID.TID 0000.0001) %MON dynstat_salt_del2            =   3.1359272630015E-07
(PID.TID 0000.0001) %MON advcfl_uvel_max              =   4.4630680760394E-04
(PID.TID 0000.0001) %MON advcfl_vvel_max              =   4.6793273016843E-04
(PID.TID 0000.0001) %MON advcfl_wvel_max              =   7.9151908394350E-04
(PID.TID 0000.0001) %MON advcfl_W_hf_max              =   7.9151908394350E-04
(PID.TID 0000.0001) %MON pe_b_mean                    =  -6.8276700895439E-01
(PID.TID 0000.0001) %MON ke_max                       =   6.4742649601360E-06
(PID.TID 0000.0001) %MON ke_mean                      =   1.8847190146313E-08
(PID.TID 0000.0001) %MON ke_vol                       =   4.6182904492343E+12
(PID.TID 0000.0001) // =======================================================
(PID.TID 0000.0001) // End MONITOR dynamic field statistics
(PID.TID 0000.0001) // =======================================================
(PID.TID 0000.0001) // =======================================================
(PID.TID 0000.0001) // Begin OBCS MONITOR field statistics
(PID.TID 0000.0001) // =======================================================
(PID.TID 0000.0001) %MON obc_N_vVel_max               =  -6.8234391770637E-08
(PID.TID 0000.0001) %MON obc_N_vVel_min               =  -6.8234391770638E-08
(PID.TID 0000.0001) %MON obc_N_vVel_mean              =  -6.8234391770638E-08
(PID.TID 0000.0001) %MON obc_N_vVel_sd                =  -2.8398992587956E-29
(PID.TID 0000.0001) %MON obc_N_vVel_Int               =  -4.5034698568621E+00
(PID.TID 0000.0001) // =======================================================
(PID.TID 0000.0001) // End OBCS MONITOR field statistics
(PID.TID 0000.0001) // =======================================================
 cg2d: Sum(rhs),rhsMax =   3.01181031883317E+00  4.53050530458627E+02
(PID.TID 0000.0001)      cg2d_init_res =   1.46675711528636E-06
(PID.TID 0000.0001)      cg2d_iters(min,last) =      -1      69
(PID.TID 0000.0001)      cg2d_last_res =   9.03575627799394E-12
(PID.TID 0000.0001) // =======================================================
(PID.TID 0000.0001) // Begin MONITOR dynamic field statistics
(PID.TID 0000.0001) // =======================================================
(PID.TID 0000.0001) %MON time_tsnumber                =                   463
(PID.TID 0000.0001) %MON time_secondsf                =   4.6300000000000E+04
(PID.TID 0000.0001) %MON dynstat_eta_max              =   5.7967611008767E+00
(PID.TID 0000.0001) %MON dynstat_eta_min              =  -1.4176289351544E+01
(PID.TID 0000.0001) %MON dynstat_eta_mean             =  -2.5268560418299E+00
(PID.TID 0000.0001) %MON dynstat_eta_sd               =   4.9419071328715E+00
(PID.TID 0000.0001) %MON dynstat_eta_del2             =   1.9058087109110E-01
(PID.TID 0000.0001) %MON dynstat_uvel_max             =   2.0033207217498E-03
(PID.TID 0000.0001) %MON dynstat_uvel_min             =  -4.4784546546159E-03
(PID.TID 0000.0001) %MON dynstat_uvel_mean            =  -1.6913369832075E-09
(PID.TID 0000.0001) %MON dynstat_uvel_sd              =   1.5815602152745E-04
(PID.TID 0000.0001) %MON dynstat_uvel_del2            =   2.9291089221350E-07
(PID.TID 0000.0001) %MON dynstat_vvel_max             =   4.6921653526302E-03
(PID.TID 0000.0001) %MON dynstat_vvel_min             =  -2.0008060816448E-03
(PID.TID 0000.0001) %MON dynstat_vvel_mean            =  -5.9997907021188E-08
(PID.TID 0000.0001) %MON dynstat_vvel_sd              =   1.1518581802014E-04
(PID.TID 0000.0001) %MON dynstat_vvel_del2            =   3.0375100045197E-07
(PID.TID 0000.0001) %MON dynstat_wvel_max             =   1.3471407265424E-04
(PID.TID 0000.0001) %MON dynstat_wvel_min             =  -1.5895064263813E-04
(PID.TID 0000.0001) %MON dynstat_wvel_mean            =   1.3012883494927E-10
(PID.TID 0000.0001) %MON dynstat_wvel_sd              =   1.4303587782274E-05
(PID.TID 0000.0001) %MON dynstat_wvel_del2            =   6.2609311156740E-08
(PID.TID 0000.0001) %MON dynstat_theta_max            =   1.2000000000000E+00
(PID.TID 0000.0001) %MON dynstat_theta_min            =  -1.0000000000000E+00
(PID.TID 0000.0001) %MON dynstat_theta_mean           =   5.6540855203984E-01
(PID.TID 0000.0001) %MON dynstat_theta_sd             =   8.4904743545152E-01
(PID.TID 0000.0001) %MON dynstat_theta_del2           =   8.6664035542675E-07
(PID.TID 0000.0001) %MON dynstat_salt_max             =   3.4700000000000E+01
(PID.TID 0000.0001) %MON dynstat_salt_min             =   3.4000000000000E+01
(PID.TID 0000.0001) %MON dynstat_salt_mean            =   3.4498076968547E+01
(PID.TID 0000.0001) %MON dynstat_salt_sd              =   2.7015212124020E-01
(PID.TID 0000.0001) %MON dynstat_salt_del2            =   3.1379127943726E-07
(PID.TID 0000.0001) %MON advcfl_uvel_max              =   4.4784546546159E-04
(PID.TID 0000.0001) %MON advcfl_vvel_max              =   4.6921653526302E-04
(PID.TID 0000.0001) %MON advcfl_wvel_max              =   7.9475321319067E-04
(PID.TID 0000.0001) %MON advcfl_W_hf_max              =   7.9475321319067E-04
(PID.TID 0000.0001) %MON pe_b_mean                    =  -6.8276642345911E-01
(PID.TID 0000.0001) %MON ke_max                       =   6.5074274026538E-06
(PID.TID 0000.0001) %MON ke_mean                      =   1.8905234115465E-08
(PID.TID 0000.0001) %MON ke_vol                       =   4.6182904621606E+12
(PID.TID 0000.0001) // =======================================================
(PID.TID 0000.0001) // End MONITOR dynamic field statistics
(PID.TID 0000.0001) // =======================================================
(PID.TID 0000.0001) // =======================================================
(PID.TID 0000.0001) // Begin OBCS MONITOR field statistics
(PID.TID 0000.0001) // =======================================================
(PID.TID 0000.0001) %MON obc_N_vVel_max               =  -6.9888381061300E-08
(PID.TID 0000.0001) %MON obc_N_vVel_min               =  -6.9888381061301E-08
(PID.TID 0000.0001) %MON obc_N_vVel_mean              =  -6.9888381061300E-08
(PID.TID 0000.0001) %MON obc_N_vVel_sd                =  -1.2227344030926E-28
(PID.TID 0000.0001) %MON obc_N_vVel_Int               =  -4.6126331500458E+00
(PID.TID 0000.0001) // =======================================================
(PID.TID 0000.0001) // End OBCS MONITOR field statistics
(PID.TID 0000.0001) // =======================================================
 cg2d: Sum(rhs),rhsMax =   3.01180777989348E+00  4.53050520720559E+02
(PID.TID 0000.0001)      cg2d_init_res =   1.46607869776513E-06
(PID.TID 0000.0001)      cg2d_iters(min,last) =      -1      69
(PID.TID 0000.0001)      cg2d_last_res =   9.07209242962539E-12
(PID.TID 0000.0001) // =======================================================
(PID.TID 0000.0001) // Begin MONITOR dynamic field statistics
(PID.TID 0000.0001) // =======================================================
(PID.TID 0000.0001) %MON time_tsnumber                =                   464
(PID.TID 0000.0001) %MON time_secondsf                =   4.6400000000000E+04
(PID.TID 0000.0001) %MON dynstat_eta_max              =   5.7967638672268E+00
(PID.TID 0000.0001) %MON dynstat_eta_min              =  -1.4176283452458E+01
(PID.TID 0000.0001) %MON dynstat_eta_mean             =  -2.5268538573907E+00
(PID.TID 0000.0001) %MON dynstat_eta_sd               =   4.9419064370411E+00
(PID.TID 0000.0001) %MON dynstat_eta_del2             =   1.9058087408306E-01
(PID.TID 0000.0001) %MON dynstat_uvel_max             =   2.0064074974542E-03
(PID.TID 0000.0001) %MON dynstat_uvel_min             =  -4.4938749587526E-03
(PID.TID 0000.0001) %MON dynstat_uvel_mean            =  -1.7009492686065E-09
(PID.TID 0000.0001) %MON dynstat_uvel_sd              =   1.5852059864248E-04
(PID.TID 0000.0001) %MON dynstat_uvel_del2            =   2.9319183522921E-07
(PID.TID 0000.0001) %MON dynstat_vvel_max             =   4.7050124187384E-03
(PID.TID 0000.0001) %MON dynstat_vvel_min             =  -2.0005886475714E-03
(PID.TID 0000.0001) %MON dynstat_vvel_mean            =  -6.1800235672167E-08
(PID.TID 0000.0001) %MON dynstat_vvel_sd              =   1.1517174036397E-04
(PID.TID 0000.0001) %MON dynstat_vvel_del2            =   3.0388882846910E-07
(PID.TID 0000.0001) %MON dynstat_wvel_max             =   1.3542219927301E-04
(PID.TID 0000.0001) %MON dynstat_wvel_min             =  -1.5959844338742E-04
(PID.TID 0000.0001) %MON dynstat_wvel_mean            =   1.3030053263191E-10
(PID.TID 0000.0001) %MON dynstat_wvel_sd              =   1.4278406166260E-05
(PID.TID 0000.0001) %MON dynstat_wvel_del2            =   6.2659374646590E-08
(PID.TID 0000.0001) %MON dynstat_theta_max            =   1.2000000000000E+00
(PID.TID 0000.0001) %MON dynstat_theta_min            =  -1.0000000000000E+00
(PID.TID 0000.0001) %MON dynstat_theta_mean           =   5.6540831676462E-01
(PID.TID 0000.0001) %MON dynstat_theta_sd             =   8.4904737257697E-01
(PID.TID 0000.0001) %MON dynstat_theta_del2           =   8.6667873374247E-07
(PID.TID 0000.0001) %MON dynstat_salt_max             =   3.4700000000000E+01
(PID.TID 0000.0001) %MON dynstat_salt_min             =   3.4000000000000E+01
(PID.TID 0000.0001) %MON dynstat_salt_mean            =   3.4498076875119E+01
(PID.TID 0000.0001) %MON dynstat_salt_sd              =   2.7015210102004E-01
(PID.TID 0000.0001) %MON dynstat_salt_del2            =   3.1401380901057E-07
(PID.TID 0000.0001) %MON advcfl_uvel_max              =   4.4938749587526E-04
(PID.TID 0000.0001) %MON advcfl_vvel_max              =   4.7050124187384E-04
(PID.TID 0000.0001) %MON advcfl_wvel_max              =   7.9799221693708E-04
(PID.TID 0000.0001) %MON advcfl_W_hf_max              =   7.9799221693708E-04
(PID.TID 0000.0001) %MON pe_b_mean                    =  -6.8276583684093E-01
(PID.TID 0000.0001) %MON ke_max                       =   6.5407032265808E-06
(PID.TID 0000.0001) %MON ke_mean                      =   1.8960254230246E-08
(PID.TID 0000.0001) %MON ke_vol                       =   4.6182904751115E+12
(PID.TID 0000.0001) // =======================================================
(PID.TID 0000.0001) // End MONITOR dynamic field statistics
(PID.TID 0000.0001) // =======================================================
(PID.TID 0000.0001) // =======================================================
(PID.TID 0000.0001) // Begin OBCS MONITOR field statistics
(PID.TID 0000.0001) // =======================================================
(PID.TID 0000.0001) %MON obc_N_vVel_max               =  -7.1553833143338E-08
(PID.TID 0000.0001) %MON obc_N_vVel_min               =  -7.1553833143338E-08
(PID.TID 0000.0001) %MON obc_N_vVel_mean              =  -7.1553833143338E-08
(PID.TID 0000.0001) %MON obc_N_vVel_sd                =  -7.8886090522101E-31
(PID.TID 0000.0001) %MON obc_N_vVel_Int               =  -4.7225529874603E+00
(PID.TID 0000.0001) // =======================================================
(PID.TID 0000.0001) // End OBCS MONITOR field statistics
(PID.TID 0000.0001) // =======================================================
 cg2d: Sum(rhs),rhsMax =   3.01180523597402E+00  4.53050510995299E+02
(PID.TID 0000.0001)      cg2d_init_res =   1.46553746800813E-06
(PID.TID 0000.0001)      cg2d_iters(min,last) =      -1      69
(PID.TID 0000.0001)      cg2d_last_res =   9.11530116799081E-12
(PID.TID 0000.0001) // =======================================================
(PID.TID 0000.0001) // Begin MONITOR dynamic field statistics
(PID.TID 0000.0001) // =======================================================
(PID.TID 0000.0001) %MON time_tsnumber                =                   465
(PID.TID 0000.0001) %MON time_secondsf                =   4.6500000000000E+04
(PID.TID 0000.0001) %MON dynstat_eta_max              =   5.7967666385297E+00
(PID.TID 0000.0001) %MON dynstat_eta_min              =  -1.4176277547993E+01
(PID.TID 0000.0001) %MON dynstat_eta_mean             =  -2.5268516688451E+00
(PID.TID 0000.0001) %MON dynstat_eta_sd               =   4.9419057401150E+00
(PID.TID 0000.0001) %MON dynstat_eta_del2             =   1.9058087708979E-01
(PID.TID 0000.0001) %MON dynstat_uvel_max             =   2.0094993580351E-03
(PID.TID 0000.0001) %MON dynstat_uvel_min             =  -4.5093291307472E-03
(PID.TID 0000.0001) %MON dynstat_uvel_mean            =  -1.7132026128833E-09
(PID.TID 0000.0001) %MON dynstat_uvel_sd              =   1.5888546179283E-04
(PID.TID 0000.0001) %MON dynstat_uvel_del2            =   2.9347654851548E-07
(PID.TID 0000.0001) %MON dynstat_vvel_max             =   4.7178686098430E-03
(PID.TID 0000.0001) %MON dynstat_vvel_min             =  -2.0003276278118E-03
(PID.TID 0000.0001) %MON dynstat_vvel_mean            =  -6.3518399696682E-08
(PID.TID 0000.0001) %MON dynstat_vvel_sd              =   1.1513008722617E-04
(PID.TID 0000.0001) %MON dynstat_vvel_del2            =   3.0401663451205E-07
(PID.TID 0000.0001) %MON dynstat_wvel_max             =   1.3613201784244E-04
(PID.TID 0000.0001) %MON dynstat_wvel_min             =  -1.6024721563666E-04
(PID.TID 0000.0001) %MON dynstat_wvel_mean            =   1.3087610604241E-10
(PID.TID 0000.0001) %MON dynstat_wvel_sd              =   1.4237441971132E-05
(PID.TID 0000.0001) %MON dynstat_wvel_del2            =   6.2699429725033E-08
(PID.TID 0000.0001) %MON dynstat_theta_max            =   1.2000000000000E+00
(PID.TID 0000.0001) %MON dynstat_theta_min            =  -1.0000000000000E+00
(PID.TID 0000.0001) %MON dynstat_theta_mean           =   5.6540808134874E-01
(PID.TID 0000.0001) %MON dynstat_theta_sd             =   8.4904730946710E-01
(PID.TID 0000.0001) %MON dynstat_theta_del2           =   8.6680908397278E-07
(PID.TID 0000.0001) %MON dynstat_salt_max             =   3.4700000000000E+01
(PID.TID 0000.0001) %MON dynstat_salt_min             =   3.4000000000000E+01
(PID.TID 0000.0001) %MON dynstat_salt_mean            =   3.4498076781625E+01
(PID.TID 0000.0001) %MON dynstat_salt_sd              =   2.7015208071180E-01
(PID.TID 0000.0001) %MON dynstat_salt_del2            =   3.1426264750738E-07
(PID.TID 0000.0001) %MON advcfl_uvel_max              =   4.5093291307472E-04
(PID.TID 0000.0001) %MON advcfl_vvel_max              =   4.7178686098430E-04
(PID.TID 0000.0001) %MON advcfl_wvel_max              =   8.0123607818328E-04
(PID.TID 0000.0001) %MON advcfl_W_hf_max              =   8.0123607818328E-04
(PID.TID 0000.0001) %MON pe_b_mean                    =  -6.8276524912116E-01
(PID.TID 0000.0001) %MON ke_max                       =   6.5740929724214E-06
(PID.TID 0000.0001) %MON ke_mean                      =   1.9012274509636E-08
(PID.TID 0000.0001) %MON ke_vol                       =   4.6182904880871E+12
(PID.TID 0000.0001) // =======================================================
(PID.TID 0000.0001) // End MONITOR dynamic field statistics
(PID.TID 0000.0001) // =======================================================
(PID.TID 0000.0001) // =======================================================
(PID.TID 0000.0001) // Begin OBCS MONITOR field statistics
(PID.TID 0000.0001) // =======================================================
(PID.TID 0000.0001) %MON obc_N_vVel_max               =  -7.3176778472126E-08
(PID.TID 0000.0001) %MON obc_N_vVel_min               =  -7.3176778472128E-08
(PID.TID 0000.0001) %MON obc_N_vVel_mean              =  -7.3176778472126E-08
(PID.TID 0000.0001) %MON obc_N_vVel_sd                =   1.8460441789282E-14
(PID.TID 0000.0001) %MON obc_N_vVel_Int               =  -4.8296673791603E+00
(PID.TID 0000.0001) // =======================================================
(PID.TID 0000.0001) // End OBCS MONITOR field statistics
(PID.TID 0000.0001) // =======================================================
 cg2d: Sum(rhs),rhsMax =   3.01180268719008E+00  4.53050501283848E+02
(PID.TID 0000.0001)      cg2d_init_res =   1.46506147330359E-06
(PID.TID 0000.0001)      cg2d_iters(min,last) =      -1      69
(PID.TID 0000.0001)      cg2d_last_res =   9.16705791433558E-12
(PID.TID 0000.0001) // =======================================================
(PID.TID 0000.0001) // Begin MONITOR dynamic field statistics
(PID.TID 0000.0001) // =======================================================
(PID.TID 0000.0001) %MON time_tsnumber                =                   466
(PID.TID 0000.0001) %MON time_secondsf                =   4.6600000000000E+04
(PID.TID 0000.0001) %MON dynstat_eta_max              =   5.7967694144256E+00
(PID.TID 0000.0001) %MON dynstat_eta_min              =  -1.4176271638582E+01
(PID.TID 0000.0001) %MON dynstat_eta_mean             =  -2.5268494762954E+00
(PID.TID 0000.0001) %MON dynstat_eta_sd               =   4.9419050421803E+00
(PID.TID 0000.0001) %MON dynstat_eta_del2             =   1.9058088011153E-01
(PID.TID 0000.0001) %MON dynstat_uvel_max             =   2.0125963867219E-03
(PID.TID 0000.0001) %MON dynstat_uvel_min             =  -4.5248173127801E-03
(PID.TID 0000.0001) %MON dynstat_uvel_mean            =  -1.7279227020187E-09
(PID.TID 0000.0001) %MON dynstat_uvel_sd              =   1.5925054325336E-04
(PID.TID 0000.0001) %MON dynstat_uvel_del2            =   2.9376498311208E-07
(PID.TID 0000.0001) %MON dynstat_vvel_max             =   4.7307340347573E-03
(PID.TID 0000.0001) %MON dynstat_vvel_min             =  -2.0000229952721E-03
(PID.TID 0000.0001) %MON dynstat_vvel_mean            =  -6.5098679563930E-08
(PID.TID 0000.0001) %MON dynstat_vvel_sd              =   1.1506169112080E-04
(PID.TID 0000.0001) %MON dynstat_vvel_del2            =   3.0413063201668E-07
(PID.TID 0000.0001) %MON dynstat_wvel_max             =   1.3684352853414E-04
(PID.TID 0000.0001) %MON dynstat_wvel_min             =  -1.6089695595031E-04
(PID.TID 0000.0001) %MON dynstat_wvel_mean            =   1.3183204329605E-10
(PID.TID 0000.0001) %MON dynstat_wvel_sd              =   1.4179798936294E-05
(PID.TID 0000.0001) %MON dynstat_wvel_del2            =   6.2721453078312E-08
(PID.TID 0000.0001) %MON dynstat_theta_max            =   1.2000000000000E+00
(PID.TID 0000.0001) %MON dynstat_theta_min            =  -1.0000000000000E+00
(PID.TID 0000.0001) %MON dynstat_theta_mean           =   5.6540784579212E-01
(PID.TID 0000.0001) %MON dynstat_theta_sd             =   8.4904724612437E-01
(PID.TID 0000.0001) %MON dynstat_theta_del2           =   8.6703920062440E-07
(PID.TID 0000.0001) %MON dynstat_salt_max             =   3.4700000000000E+01
(PID.TID 0000.0001) %MON dynstat_salt_min             =   3.4000000000000E+01
(PID.TID 0000.0001) %MON dynstat_salt_mean            =   3.4498076688065E+01
(PID.TID 0000.0001) %MON dynstat_salt_sd              =   2.7015206031600E-01
(PID.TID 0000.0001) %MON dynstat_salt_del2            =   3.1453991850736E-07
(PID.TID 0000.0001) %MON advcfl_uvel_max              =   4.5248173127801E-04
(PID.TID 0000.0001) %MON advcfl_vvel_max              =   4.7307340347573E-04
(PID.TID 0000.0001) %MON advcfl_wvel_max              =   8.0448477975157E-04
(PID.TID 0000.0001) %MON advcfl_W_hf_max              =   8.0448477975157E-04
(PID.TID 0000.0001) %MON pe_b_mean                    =  -6.8276466033147E-01
(PID.TID 0000.0001) %MON ke_max                       =   6.6075971808643E-06
(PID.TID 0000.0001) %MON ke_mean                      =   1.9061383906994E-08
(PID.TID 0000.0001) %MON ke_vol                       =   4.6182905010871E+12
(PID.TID 0000.0001) // =======================================================
(PID.TID 0000.0001) // End MONITOR dynamic field statistics
(PID.TID 0000.0001) // =======================================================
(PID.TID 0000.0001) // =======================================================
(PID.TID 0000.0001) // Begin OBCS MONITOR field statistics
(PID.TID 0000.0001) // =======================================================
(PID.TID 0000.0001) %MON obc_N_vVel_max               =  -7.4705782737286E-08
(PID.TID 0000.0001) %MON obc_N_vVel_min               =  -7.4705782737287E-08
(PID.TID 0000.0001) %MON obc_N_vVel_mean              =  -7.4705782737287E-08
(PID.TID 0000.0001) %MON obc_N_vVel_sd                =  -1.8932661725304E-28
(PID.TID 0000.0001) %MON obc_N_vVel_Int               =  -4.9305816606609E+00
(PID.TID 0000.0001) // =======================================================
(PID.TID 0000.0001) // End OBCS MONITOR field statistics
(PID.TID 0000.0001) // =======================================================
 cg2d: Sum(rhs),rhsMax =   3.01180013372535E+00  4.53050491587131E+02
(PID.TID 0000.0001)      cg2d_init_res =   1.46458148674102E-06
(PID.TID 0000.0001)      cg2d_iters(min,last) =      -1      69
(PID.TID 0000.0001)      cg2d_last_res =   9.22577633766403E-12
(PID.TID 0000.0001) // =======================================================
(PID.TID 0000.0001) // Begin MONITOR dynamic field statistics
(PID.TID 0000.0001) // =======================================================
(PID.TID 0000.0001) %MON time_tsnumber                =                   467
(PID.TID 0000.0001) %MON time_secondsf                =   4.6700000000000E+04
(PID.TID 0000.0001) %MON dynstat_eta_max              =   5.7967721944456E+00
(PID.TID 0000.0001) %MON dynstat_eta_min              =  -1.4176265724773E+01
(PID.TID 0000.0001) %MON dynstat_eta_mean             =  -2.5268472799009E+00
(PID.TID 0000.0001) %MON dynstat_eta_sd               =   4.9419043433347E+00
(PID.TID 0000.0001) %MON dynstat_eta_del2             =   1.9058088314843E-01
(PID.TID 0000.0001) %MON dynstat_uvel_max             =   2.0156986657280E-03
(PID.TID 0000.0001) %MON dynstat_uvel_min             =  -4.5403396462982E-03
(PID.TID 0000.0001) %MON dynstat_uvel_mean            =  -1.7448518315433E-09
(PID.TID 0000.0001) %MON dynstat_uvel_sd              =   1.5961576775509E-04
(PID.TID 0000.0001) %MON dynstat_uvel_del2            =   2.9405708400365E-07
(PID.TID 0000.0001) %MON dynstat_vvel_max             =   4.7436088012072E-03
(PID.TID 0000.0001) %MON dynstat_vvel_min             =  -1.9996747286086E-03
(PID.TID 0000.0001) %MON dynstat_vvel_mean            =  -6.6492966693913E-08
(PID.TID 0000.0001) %MON dynstat_vvel_sd              =   1.1496796768046E-04
(PID.TID 0000.0001) %MON dynstat_vvel_del2            =   3.0422702925642E-07
(PID.TID 0000.0001) %MON dynstat_wvel_max             =   1.3755673152431E-04
(PID.TID 0000.0001) %MON dynstat_wvel_min             =  -1.6154766083265E-04
(PID.TID 0000.0001) %MON dynstat_wvel_mean            =   1.3313292434059E-10
(PID.TID 0000.0001) %MON dynstat_wvel_sd              =   1.4104857043807E-05
(PID.TID 0000.0001) %MON dynstat_wvel_del2            =   6.2716766388294E-08
(PID.TID 0000.0001) %MON dynstat_theta_max            =   1.2000000000000E+00
(PID.TID 0000.0001) %MON dynstat_theta_min            =  -1.0000000000000E+00
(PID.TID 0000.0001) %MON dynstat_theta_mean           =   5.6540761009502E-01
(PID.TID 0000.0001) %MON dynstat_theta_sd             =   8.4904718254490E-01
(PID.TID 0000.0001) %MON dynstat_theta_del2           =   8.6737531640357E-07
(PID.TID 0000.0001) %MON dynstat_salt_max             =   3.4700000000000E+01
(PID.TID 0000.0001) %MON dynstat_salt_min             =   3.4000000000000E+01
(PID.TID 0000.0001) %MON dynstat_salt_mean            =   3.4498076594440E+01
(PID.TID 0000.0001) %MON dynstat_salt_sd              =   2.7015203983150E-01
(PID.TID 0000.0001) %MON dynstat_salt_del2            =   3.1484729984525E-07
(PID.TID 0000.0001) %MON advcfl_uvel_max              =   4.5403396462982E-04
(PID.TID 0000.0001) %MON advcfl_vvel_max              =   4.7436088012072E-04
(PID.TID 0000.0001) %MON advcfl_wvel_max              =   8.0773830416327E-04
(PID.TID 0000.0001) %MON advcfl_W_hf_max              =   8.0773830416327E-04
(PID.TID 0000.0001) %MON pe_b_mean                    =  -6.8276407051471E-01
(PID.TID 0000.0001) %MON ke_max                       =   6.6412163924770E-06
(PID.TID 0000.0001) %MON ke_mean                      =   1.9107739098019E-08
(PID.TID 0000.0001) %MON ke_vol                       =   4.6182905141108E+12
(PID.TID 0000.0001) // =======================================================
(PID.TID 0000.0001) // End MONITOR dynamic field statistics
(PID.TID 0000.0001) // =======================================================
(PID.TID 0000.0001) // =======================================================
(PID.TID 0000.0001) // Begin OBCS MONITOR field statistics
(PID.TID 0000.0001) // =======================================================
(PID.TID 0000.0001) %MON obc_N_vVel_max               =  -7.6093543570324E-08
(PID.TID 0000.0001) %MON obc_N_vVel_min               =  -7.6093543570327E-08
(PID.TID 0000.0001) %MON obc_N_vVel_mean              =  -7.6093543570324E-08
(PID.TID 0000.0001) %MON obc_N_vVel_sd                =   1.9069999405005E-14
(PID.TID 0000.0001) %MON obc_N_vVel_Int               =  -5.0221738756414E+00
(PID.TID 0000.0001) // =======================================================
(PID.TID 0000.0001) // End OBCS MONITOR field statistics
(PID.TID 0000.0001) // =======================================================
 cg2d: Sum(rhs),rhsMax =   3.01179757581581E+00  4.53050481905895E+02
(PID.TID 0000.0001)      cg2d_init_res =   1.46399711342957E-06
(PID.TID 0000.0001)      cg2d_iters(min,last) =      -1      69
(PID.TID 0000.0001)      cg2d_last_res =   9.28612328543492E-12
(PID.TID 0000.0001) // =======================================================
(PID.TID 0000.0001) // Begin MONITOR dynamic field statistics
(PID.TID 0000.0001) // =======================================================
(PID.TID 0000.0001) %MON time_tsnumber                =                   468
(PID.TID 0000.0001) %MON time_secondsf                =   4.6800000000000E+04
(PID.TID 0000.0001) %MON dynstat_eta_max              =   5.7967749780490E+00
(PID.TID 0000.0001) %MON dynstat_eta_min              =  -1.4176259807202E+01
(PID.TID 0000.0001) %MON dynstat_eta_mean             =  -2.5268450798636E+00
(PID.TID 0000.0001) %MON dynstat_eta_sd               =   4.9419036436901E+00
(PID.TID 0000.0001) %MON dynstat_eta_del2             =   1.9058088620075E-01
(PID.TID 0000.0001) %MON dynstat_uvel_max             =   2.0188062759789E-03
(PID.TID 0000.0001) %MON dynstat_uvel_min             =  -4.5558962722536E-03
(PID.TID 0000.0001) %MON dynstat_uvel_mean            =  -1.7636731035951E-09
(PID.TID 0000.0001) %MON dynstat_uvel_sd              =   1.5998105334845E-04
(PID.TID 0000.0001) %MON dynstat_uvel_del2            =   2.9435279036868E-07
(PID.TID 0000.0001) %MON dynstat_vvel_max             =   4.7564930153223E-03
(PID.TID 0000.0001) %MON dynstat_vvel_min             =  -1.9992828128448E-03
(PID.TID 0000.0001) %MON dynstat_vvel_mean            =  -6.7660273109680E-08
(PID.TID 0000.0001) %MON dynstat_vvel_sd              =   1.1485093119007E-04
(PID.TID 0000.0001) %MON dynstat_vvel_del2            =   3.0430238220824E-07
(PID.TID 0000.0001) %MON dynstat_wvel_max             =   1.3827162703851E-04
(PID.TID 0000.0001) %MON dynstat_wvel_min             =  -1.6219932677804E-04
(PID.TID 0000.0001) %MON dynstat_wvel_mean            =   1.3473271728726E-10
(PID.TID 0000.0001) %MON dynstat_wvel_sd              =   1.4012345467413E-05
(PID.TID 0000.0001) %MON dynstat_wvel_del2            =   6.2676739631560E-08
(PID.TID 0000.0001) %MON dynstat_theta_max            =   1.2000000000000E+00
(PID.TID 0000.0001) %MON dynstat_theta_min            =  -1.0000000000000E+00
(PID.TID 0000.0001) %MON dynstat_theta_mean           =   5.6540737425712E-01
(PID.TID 0000.0001) %MON dynstat_theta_sd             =   8.4904711873614E-01
(PID.TID 0000.0001) %MON dynstat_theta_del2           =   8.6782150523514E-07
(PID.TID 0000.0001) %MON dynstat_salt_max             =   3.4700000000000E+01
(PID.TID 0000.0001) %MON dynstat_salt_min             =   3.4000000000000E+01
(PID.TID 0000.0001) %MON dynstat_salt_mean            =   3.4498076500748E+01
(PID.TID 0000.0001) %MON dynstat_salt_sd              =   2.7015201926074E-01
(PID.TID 0000.0001) %MON dynstat_salt_del2            =   3.1518586266532E-07
(PID.TID 0000.0001) %MON advcfl_uvel_max              =   4.5558962722536E-04
(PID.TID 0000.0001) %MON advcfl_vvel_max              =   4.7564930153223E-04
(PID.TID 0000.0001) %MON advcfl_wvel_max              =   8.1099663389019E-04
(PID.TID 0000.0001) %MON advcfl_W_hf_max              =   8.1099663389019E-04
(PID.TID 0000.0001) %MON pe_b_mean                    =  -6.8276347972110E-01
(PID.TID 0000.0001) %MON ke_max                       =   6.6749511461855E-06
(PID.TID 0000.0001) %MON ke_mean                      =   1.9151565822864E-08
(PID.TID 0000.0001) %MON ke_vol                       =   4.6182905271574E+12
(PID.TID 0000.0001) // =======================================================
(PID.TID 0000.0001) // End MONITOR dynamic field statistics
(PID.TID 0000.0001) // =======================================================
(PID.TID 0000.0001) // =======================================================
(PID.TID 0000.0001) // Begin OBCS MONITOR field statistics
(PID.TID 0000.0001) // =======================================================
(PID.TID 0000.0001) %MON obc_N_vVel_max               =  -7.7298355336194E-08
(PID.TID 0000.0001) %MON obc_N_vVel_min               =  -7.7298355336195E-08
(PID.TID 0000.0001) %MON obc_N_vVel_mean              =  -7.7298355336194E-08
(PID.TID 0000.0001) %MON obc_N_vVel_sd                =  -9.0719004100416E-29
(PID.TID 0000.0001) %MON obc_N_vVel_Int               =  -5.1016914521888E+00
(PID.TID 0000.0001) // =======================================================
(PID.TID 0000.0001) // End OBCS MONITOR field statistics
(PID.TID 0000.0001) // =======================================================
 cg2d: Sum(rhs),rhsMax =   3.01179501374145E+00  4.53050472240616E+02
(PID.TID 0000.0001)      cg2d_init_res =   1.46319473700767E-06
(PID.TID 0000.0001)      cg2d_iters(min,last) =      -1      69
(PID.TID 0000.0001)      cg2d_last_res =   9.34347058342299E-12
(PID.TID 0000.0001) // =======================================================
(PID.TID 0000.0001) // Begin MONITOR dynamic field statistics
(PID.TID 0000.0001) // =======================================================
(PID.TID 0000.0001) %MON time_tsnumber                =                   469
(PID.TID 0000.0001) %MON time_secondsf                =   4.6900000000000E+04
(PID.TID 0000.0001) %MON dynstat_eta_max              =   5.7967777646528E+00
(PID.TID 0000.0001) %MON dynstat_eta_min              =  -1.4176253886562E+01
(PID.TID 0000.0001) %MON dynstat_eta_mean             =  -2.5268428764213E+00
(PID.TID 0000.0001) %MON dynstat_eta_sd               =   4.9419029433621E+00
(PID.TID 0000.0001) %MON dynstat_eta_del2             =   1.9058088926873E-01
(PID.TID 0000.0001) %MON dynstat_uvel_max             =   2.0219192975013E-03
(PID.TID 0000.0001) %MON dynstat_uvel_min             =  -4.5714873309155E-03
(PID.TID 0000.0001) %MON dynstat_uvel_mean            =  -1.7840009316500E-09
(PID.TID 0000.0001) %MON dynstat_uvel_sd              =   1.6034631241491E-04
(PID.TID 0000.0001) %MON dynstat_uvel_del2            =   2.9465203600108E-07
(PID.TID 0000.0001) %MON dynstat_vvel_max             =   4.7693867817795E-03
(PID.TID 0000.0001) %MON dynstat_vvel_min             =  -1.9988472398014E-03
(PID.TID 0000.0001) %MON dynstat_vvel_mean            =  -6.8567970016241E-08
(PID.TID 0000.0001) %MON dynstat_vvel_sd              =   1.1471319645200E-04
(PID.TID 0000.0001) %MON dynstat_vvel_del2            =   3.0435395972267E-07
(PID.TID 0000.0001) %MON dynstat_wvel_max             =   1.3898821540336E-04
(PID.TID 0000.0001) %MON dynstat_wvel_min             =  -1.6285195022871E-04
(PID.TID 0000.0001) %MON dynstat_wvel_mean            =   1.3657622297357E-10
(PID.TID 0000.0001) %MON dynstat_wvel_sd              =   1.3902416565132E-05
(PID.TID 0000.0001) %MON dynstat_wvel_del2            =   6.2593529026289E-08
(PID.TID 0000.0001) %MON dynstat_theta_max            =   1.2000000000000E+00
(PID.TID 0000.0001) %MON dynstat_theta_min            =  -1.0000000000000E+00
(PID.TID 0000.0001) %MON dynstat_theta_mean           =   5.6540713827756E-01
(PID.TID 0000.0001) %MON dynstat_theta_sd             =   8.4904705472312E-01
(PID.TID 0000.0001) %MON dynstat_theta_del2           =   8.6837922369242E-07
(PID.TID 0000.0001) %MON dynstat_salt_max             =   3.4700000000000E+01
(PID.TID 0000.0001) %MON dynstat_salt_min             =   3.4000000000000E+01
(PID.TID 0000.0001) %MON dynstat_salt_mean            =   3.4498076406991E+01
(PID.TID 0000.0001) %MON dynstat_salt_sd              =   2.7015199861172E-01
(PID.TID 0000.0001) %MON dynstat_salt_del2            =   3.1555595803862E-07
(PID.TID 0000.0001) %MON advcfl_uvel_max              =   4.5714873309155E-04
(PID.TID 0000.0001) %MON advcfl_vvel_max              =   4.7693867817795E-04
(PID.TID 0000.0001) %MON advcfl_wvel_max              =   8.1425975114353E-04
(PID.TID 0000.0001) %MON advcfl_W_hf_max              =   8.1425975114353E-04
(PID.TID 0000.0001) %MON pe_b_mean                    =  -6.8276288800635E-01
(PID.TID 0000.0001) %MON ke_max                       =   6.7088019799553E-06
(PID.TID 0000.0001) %MON ke_mean                      =   1.9193158482860E-08
(PID.TID 0000.0001) %MON ke_vol                       =   4.6182905402256E+12
(PID.TID 0000.0001) // =======================================================
(PID.TID 0000.0001) // End MONITOR dynamic field statistics
(PID.TID 0000.0001) // =======================================================
(PID.TID 0000.0001) // =======================================================
(PID.TID 0000.0001) // Begin OBCS MONITOR field statistics
(PID.TID 0000.0001) // =======================================================
(PID.TID 0000.0001) %MON obc_N_vVel_max               =  -7.8285343856810E-08
(PID.TID 0000.0001) %MON obc_N_vVel_min               =  -7.8285343856812E-08
(PID.TID 0000.0001) %MON obc_N_vVel_mean              =  -7.8285343856810E-08
(PID.TID 0000.0001) %MON obc_N_vVel_sd                =   1.9357399876533E-14
(PID.TID 0000.0001) %MON obc_N_vVel_Int               =  -5.1668326945495E+00
(PID.TID 0000.0001) // =======================================================
(PID.TID 0000.0001) // End OBCS MONITOR field statistics
(PID.TID 0000.0001) // =======================================================
 cg2d: Sum(rhs),rhsMax =   3.01179244781951E+00  4.53050462591554E+02
(PID.TID 0000.0001)      cg2d_init_res =   1.46204447729135E-06
(PID.TID 0000.0001)      cg2d_iters(min,last) =      -1      69
(PID.TID 0000.0001)      cg2d_last_res =   9.39472279202874E-12
(PID.TID 0000.0001) // =======================================================
(PID.TID 0000.0001) // Begin MONITOR dynamic field statistics
(PID.TID 0000.0001) // =======================================================
(PID.TID 0000.0001) %MON time_tsnumber                =                   470
(PID.TID 0000.0001) %MON time_secondsf                =   4.7000000000000E+04
(PID.TID 0000.0001) %MON dynstat_eta_max              =   5.7967805536283E+00
(PID.TID 0000.0001) %MON dynstat_eta_min              =  -1.4176247963601E+01
(PID.TID 0000.0001) %MON dynstat_eta_mean             =  -2.5268406698415E+00
(PID.TID 0000.0001) %MON dynstat_eta_sd               =   4.9419022424634E+00
(PID.TID 0000.0001) %MON dynstat_eta_del2             =   1.9058089235227E-01
(PID.TID 0000.0001) %MON dynstat_uvel_max             =   2.0250378092204E-03
(PID.TID 0000.0001) %MON dynstat_uvel_min             =  -4.5871129620698E-03
(PID.TID 0000.0001) %MON dynstat_uvel_mean            =  -1.8053994544381E-09
(PID.TID 0000.0001) %MON dynstat_uvel_sd              =   1.6071145283058E-04
(PID.TID 0000.0001) %MON dynstat_uvel_del2            =   2.9495475017016E-07
(PID.TID 0000.0001) %MON dynstat_vvel_max             =   4.7822902032133E-03
(PID.TID 0000.0001) %MON dynstat_vvel_min             =  -1.9983680085245E-03
(PID.TID 0000.0001) %MON dynstat_vvel_mean            =  -6.9192705464285E-08
(PID.TID 0000.0001) %MON dynstat_vvel_sd              =   1.1455796434416E-04
(PID.TID 0000.0001) %MON dynstat_vvel_del2            =   3.0438008126105E-07
(PID.TID 0000.0001) %MON dynstat_wvel_max             =   1.3970649708839E-04
(PID.TID 0000.0001) %MON dynstat_wvel_min             =  -1.6350552756215E-04
(PID.TID 0000.0001) %MON dynstat_wvel_mean            =   1.3860132379361E-10
(PID.TID 0000.0001) %MON dynstat_wvel_sd              =   1.3775715812418E-05
(PID.TID 0000.0001) %MON dynstat_wvel_del2            =   6.2460772295204E-08
(PID.TID 0000.0001) %MON dynstat_theta_max            =   1.2000000000000E+00
(PID.TID 0000.0001) %MON dynstat_theta_min            =  -1.0000000000000E+00
(PID.TID 0000.0001) %MON dynstat_theta_mean           =   5.6540690215527E-01
(PID.TID 0000.0001) %MON dynstat_theta_sd             =   8.4904699052966E-01
(PID.TID 0000.0001) %MON dynstat_theta_del2           =   8.6904686059275E-07
(PID.TID 0000.0001) %MON dynstat_salt_max             =   3.4700000000000E+01
(PID.TID 0000.0001) %MON dynstat_salt_min             =   3.4000000000000E+01
(PID.TID 0000.0001) %MON dynstat_salt_mean            =   3.4498076313167E+01
(PID.TID 0000.0001) %MON dynstat_salt_sd              =   2.7015197789189E-01
(PID.TID 0000.0001) %MON dynstat_salt_del2            =   3.1595706736557E-07
(PID.TID 0000.0001) %MON advcfl_uvel_max              =   4.5871129620698E-04
(PID.TID 0000.0001) %MON advcfl_vvel_max              =   4.7822902032133E-04
(PID.TID 0000.0001) %MON advcfl_wvel_max              =   8.1752763781076E-04
(PID.TID 0000.0001) %MON advcfl_W_hf_max              =   8.1752763781076E-04
(PID.TID 0000.0001) %MON pe_b_mean                    =  -6.8276229543056E-01
(PID.TID 0000.0001) %MON ke_max                       =   6.7431448322664E-06
(PID.TID 0000.0001) %MON ke_mean                      =   1.9232877741236E-08
(PID.TID 0000.0001) %MON ke_vol                       =   4.6182905533141E+12
(PID.TID 0000.0001) // =======================================================
(PID.TID 0000.0001) // End MONITOR dynamic field statistics
(PID.TID 0000.0001) // =======================================================
(PID.TID 0000.0001) // =======================================================
(PID.TID 0000.0001) // Begin OBCS MONITOR field statistics
(PID.TID 0000.0001) // =======================================================
(PID.TID 0000.0001) %MON obc_N_vVel_max               =  -7.9027520310324E-08
(PID.TID 0000.0001) %MON obc_N_vVel_min               =  -7.9027520310326E-08
(PID.TID 0000.0001) %MON obc_N_vVel_mean              =  -7.9027520310326E-08
(PID.TID 0000.0001) %MON obc_N_vVel_sd                =  -3.9758589623139E-28
(PID.TID 0000.0001) %MON obc_N_vVel_Int               =  -5.2158163404815E+00
(PID.TID 0000.0001) // =======================================================
(PID.TID 0000.0001) // End OBCS MONITOR field statistics
(PID.TID 0000.0001) // =======================================================
 cg2d: Sum(rhs),rhsMax =   3.01178987839929E+00  4.53050452958607E+02
(PID.TID 0000.0001)      cg2d_init_res =   1.46047635423378E-06
(PID.TID 0000.0001)      cg2d_iters(min,last) =      -1      69
(PID.TID 0000.0001)      cg2d_last_res =   9.43991480186303E-12
(PID.TID 0000.0001) // =======================================================
(PID.TID 0000.0001) // Begin MONITOR dynamic field statistics
(PID.TID 0000.0001) // =======================================================
(PID.TID 0000.0001) %MON time_tsnumber                =                   471
(PID.TID 0000.0001) %MON time_secondsf                =   4.7100000000000E+04
(PID.TID 0000.0001) %MON dynstat_eta_max              =   5.7967833443190E+00
(PID.TID 0000.0001) %MON dynstat_eta_min              =  -1.4176242039097E+01
(PID.TID 0000.0001) %MON dynstat_eta_mean             =  -2.5268384604166E+00
(PID.TID 0000.0001) %MON dynstat_eta_sd               =   4.9419015411060E+00
(PID.TID 0000.0001) %MON dynstat_eta_del2             =   1.9058089545135E-01
(PID.TID 0000.0001) %MON dynstat_uvel_max             =   2.0281618888269E-03
(PID.TID 0000.0001) %MON dynstat_uvel_min             =  -4.6027733050469E-03
(PID.TID 0000.0001) %MON dynstat_uvel_mean            =  -1.8274182862879E-09
(PID.TID 0000.0001) %MON dynstat_uvel_sd              =   1.6107637923155E-04
(PID.TID 0000.0001) %MON dynstat_uvel_del2            =   2.9526085820960E-07
(PID.TID 0000.0001) %MON dynstat_vvel_max             =   4.7952033802310E-03
(PID.TID 0000.0001) %MON dynstat_vvel_min             =  -1.9978451257856E-03
(PID.TID 0000.0001) %MON dynstat_vvel_mean            =  -6.9520988354832E-08
(PID.TID 0000.0001) %MON dynstat_vvel_sd              =   1.1438898873144E-04
(PID.TID 0000.0001) %MON dynstat_vvel_del2            =   3.0438039158502E-07
(PID.TID 0000.0001) %MON dynstat_wvel_max             =   1.4042647255410E-04
(PID.TID 0000.0001) %MON dynstat_wvel_min             =  -1.6416005515716E-04
(PID.TID 0000.0001) %MON dynstat_wvel_mean            =   1.4074102882327E-10
(PID.TID 0000.0001) %MON dynstat_wvel_sd              =   1.3633442540089E-05
(PID.TID 0000.0001) %MON dynstat_wvel_del2            =   6.2274177183880E-08
(PID.TID 0000.0001) %MON dynstat_theta_max            =   1.2000000000000E+00
(PID.TID 0000.0001) %MON dynstat_theta_min            =  -1.0000000000000E+00
(PID.TID 0000.0001) %MON dynstat_theta_mean           =   5.6540666588943E-01
(PID.TID 0000.0001) %MON dynstat_theta_sd             =   8.4904692616039E-01
(PID.TID 0000.0001) %MON dynstat_theta_del2           =   8.6981949250829E-07
(PID.TID 0000.0001) %MON dynstat_salt_max             =   3.4700000000000E+01
(PID.TID 0000.0001) %MON dynstat_salt_min             =   3.4000000000000E+01
(PID.TID 0000.0001) %MON dynstat_salt_mean            =   3.4498076219276E+01
(PID.TID 0000.0001) %MON dynstat_salt_sd              =   2.7015195710277E-01
(PID.TID 0000.0001) %MON dynstat_salt_del2            =   3.1638775592004E-07
(PID.TID 0000.0001) %MON advcfl_uvel_max              =   4.6027733050469E-04
(PID.TID 0000.0001) %MON advcfl_vvel_max              =   4.7952033802310E-04
(PID.TID 0000.0001) %MON advcfl_wvel_max              =   8.2080027578582E-04
(PID.TID 0000.0001) %MON advcfl_W_hf_max              =   8.2080027578582E-04
(PID.TID 0000.0001) %MON pe_b_mean                    =  -6.8276170205734E-01
(PID.TID 0000.0001) %MON ke_max                       =   6.7863449511245E-06
(PID.TID 0000.0001) %MON ke_mean                      =   1.9271145924567E-08
(PID.TID 0000.0001) %MON ke_vol                       =   4.6182905664211E+12
(PID.TID 0000.0001) // =======================================================
(PID.TID 0000.0001) // End MONITOR dynamic field statistics
(PID.TID 0000.0001) // =======================================================
(PID.TID 0000.0001) // =======================================================
(PID.TID 0000.0001) // Begin OBCS MONITOR field statistics
(PID.TID 0000.0001) // =======================================================
(PID.TID 0000.0001) %MON obc_N_vVel_max               =  -7.9506506382952E-08
(PID.TID 0000.0001) %MON obc_N_vVel_min               =  -7.9506506382953E-08
(PID.TID 0000.0001) %MON obc_N_vVel_mean              =  -7.9506506382953E-08
(PID.TID 0000.0001) %MON obc_N_vVel_sd                =  -3.6524259911733E-28
(PID.TID 0000.0001) %MON obc_N_vVel_Int               =  -5.2474294212749E+00
(PID.TID 0000.0001) // =======================================================
(PID.TID 0000.0001) // End OBCS MONITOR field statistics
(PID.TID 0000.0001) // =======================================================
 cg2d: Sum(rhs),rhsMax =   3.01178730584563E+00  4.53050443341410E+02
(PID.TID 0000.0001)      cg2d_init_res =   1.45844553035605E-06
(PID.TID 0000.0001)      cg2d_iters(min,last) =      -1      69
(PID.TID 0000.0001)      cg2d_last_res =   9.48413563258321E-12
(PID.TID 0000.0001) // =======================================================
(PID.TID 0000.0001) // Begin MONITOR dynamic field statistics
(PID.TID 0000.0001) // =======================================================
(PID.TID 0000.0001) %MON time_tsnumber                =                   472
(PID.TID 0000.0001) %MON time_secondsf                =   4.7200000000000E+04
(PID.TID 0000.0001) %MON dynstat_eta_max              =   5.7967861360536E+00
(PID.TID 0000.0001) %MON dynstat_eta_min              =  -1.4176236113824E+01
(PID.TID 0000.0001) %MON dynstat_eta_mean             =  -2.5268362484507E+00
(PID.TID 0000.0001) %MON dynstat_eta_sd               =   4.9419008393979E+00
(PID.TID 0000.0001) %MON dynstat_eta_del2             =   1.9058089856606E-01
(PID.TID 0000.0001) %MON dynstat_uvel_max             =   2.0312916126439E-03
(PID.TID 0000.0001) %MON dynstat_uvel_min             =  -4.6184684986725E-03
(PID.TID 0000.0001) %MON dynstat_uvel_mean            =  -1.8495889402194E-09
(PID.TID 0000.0001) %MON dynstat_uvel_sd              =   1.6144099439835E-04
(PID.TID 0000.0001) %MON dynstat_uvel_del2            =   2.9557028280570E-07
(PID.TID 0000.0001) %MON dynstat_vvel_max             =   4.8081264113116E-03
(PID.TID 0000.0001) %MON dynstat_vvel_min             =  -1.9972786079165E-03
(PID.TID 0000.0001) %MON dynstat_vvel_mean            =  -6.9549465066697E-08
(PID.TID 0000.0001) %MON dynstat_vvel_sd              =   1.1421052286211E-04
(PID.TID 0000.0001) %MON dynstat_vvel_del2            =   3.0435604214259E-07
(PID.TID 0000.0001) %MON dynstat_wvel_max             =   1.4114814214688E-04
(PID.TID 0000.0001) %MON dynstat_wvel_min             =  -1.6481552939755E-04
(PID.TID 0000.0001) %MON dynstat_wvel_mean            =   1.4292541760830E-10
(PID.TID 0000.0001) %MON dynstat_wvel_sd              =   1.3477395950076E-05
(PID.TID 0000.0001) %MON dynstat_wvel_del2            =   6.2031949818842E-08
(PID.TID 0000.0001) %MON dynstat_theta_max            =   1.2000000000000E+00
(PID.TID 0000.0001) %MON dynstat_theta_min            =  -1.0000000000000E+00
(PID.TID 0000.0001) %MON dynstat_theta_mean           =   5.6540642947911E-01
(PID.TID 0000.0001) %MON dynstat_theta_sd             =   8.4904686160529E-01
(PID.TID 0000.0001) %MON dynstat_theta_del2           =   8.7068889682116E-07
(PID.TID 0000.0001) %MON dynstat_salt_max             =   3.4700000000000E+01
(PID.TID 0000.0001) %MON dynstat_salt_min             =   3.4000000000000E+01
(PID.TID 0000.0001) %MON dynstat_salt_mean            =   3.4498076125318E+01
(PID.TID 0000.0001) %MON dynstat_salt_sd              =   2.7015193624133E-01
(PID.TID 0000.0001) %MON dynstat_salt_del2            =   3.1684570135001E-07
(PID.TID 0000.0001) %MON advcfl_uvel_max              =   4.6184684986725E-04
(PID.TID 0000.0001) %MON advcfl_vvel_max              =   4.8081264113116E-04
(PID.TID 0000.0001) %MON advcfl_wvel_max              =   8.2407764698775E-04
(PID.TID 0000.0001) %MON advcfl_W_hf_max              =   8.2407764698775E-04
(PID.TID 0000.0001) %MON pe_b_mean                    =  -6.8276110795083E-01
(PID.TID 0000.0001) %MON ke_max                       =   6.8297896009072E-06
(PID.TID 0000.0001) %MON ke_mean                      =   1.9308440109454E-08
(PID.TID 0000.0001) %MON ke_vol                       =   4.6182905795451E+12
(PID.TID 0000.0001) // =======================================================
(PID.TID 0000.0001) // End MONITOR dynamic field statistics
(PID.TID 0000.0001) // =======================================================
(PID.TID 0000.0001) // =======================================================
(PID.TID 0000.0001) // Begin OBCS MONITOR field statistics
(PID.TID 0000.0001) // =======================================================
(PID.TID 0000.0001) %MON obc_N_vVel_max               =  -7.9712968325193E-08
(PID.TID 0000.0001) %MON obc_N_vVel_min               =  -7.9712968325195E-08
(PID.TID 0000.0001) %MON obc_N_vVel_mean              =  -7.9712968325193E-08
(PID.TID 0000.0001) %MON obc_N_vVel_sd                =   2.1755839288168E-14
(PID.TID 0000.0001) %MON obc_N_vVel_Int               =  -5.2610559094627E+00
(PID.TID 0000.0001) // =======================================================
(PID.TID 0000.0001) // End OBCS MONITOR field statistics
(PID.TID 0000.0001) // =======================================================
 cg2d: Sum(rhs),rhsMax =   3.01178473052330E+00  4.53050433739283E+02
(PID.TID 0000.0001)      cg2d_init_res =   1.45593762862292E-06
(PID.TID 0000.0001)      cg2d_iters(min,last) =      -1      69
(PID.TID 0000.0001)      cg2d_last_res =   9.53159737940569E-12
(PID.TID 0000.0001) // =======================================================
(PID.TID 0000.0001) // Begin MONITOR dynamic field statistics
(PID.TID 0000.0001) // =======================================================
(PID.TID 0000.0001) %MON time_tsnumber                =                   473
(PID.TID 0000.0001) %MON time_secondsf                =   4.7300000000000E+04
(PID.TID 0000.0001) %MON dynstat_eta_max              =   5.7967889281562E+00
(PID.TID 0000.0001) %MON dynstat_eta_min              =  -1.4176230188553E+01
(PID.TID 0000.0001) %MON dynstat_eta_mean             =  -2.5268340342462E+00
(PID.TID 0000.0001) %MON dynstat_eta_sd               =   4.9419001374365E+00
(PID.TID 0000.0001) %MON dynstat_eta_del2             =   1.9058090169634E-01
(PID.TID 0000.0001) %MON dynstat_uvel_max             =   2.0344270558930E-03
(PID.TID 0000.0001) %MON dynstat_uvel_min             =  -4.6341986816483E-03
(PID.TID 0000.0001) %MON dynstat_uvel_mean            =  -1.8714234738449E-09
(PID.TID 0000.0001) %MON dynstat_uvel_sd              =   1.6180520071691E-04
(PID.TID 0000.0001) %MON dynstat_uvel_del2            =   2.9588294501315E-07
(PID.TID 0000.0001) %MON dynstat_vvel_max             =   4.8210593926621E-03
(PID.TID 0000.0001) %MON dynstat_vvel_min             =  -1.9966684862869E-03
(PID.TID 0000.0001) %MON dynstat_vvel_mean            =  -6.9284882440499E-08
(PID.TID 0000.0001) %MON dynstat_vvel_sd              =   1.1402724439807E-04
(PID.TID 0000.0001) %MON dynstat_vvel_del2            =   3.0430976011917E-07
(PID.TID 0000.0001) %MON dynstat_wvel_max             =   1.4187150634333E-04
(PID.TID 0000.0001) %MON dynstat_wvel_min             =  -1.6547194665302E-04
(PID.TID 0000.0001) %MON dynstat_wvel_mean            =   1.4508412473491E-10
(PID.TID 0000.0001) %MON dynstat_wvel_sd              =   1.3310001216619E-05
(PID.TID 0000.0001) %MON dynstat_wvel_del2            =   6.1735030792700E-08
(PID.TID 0000.0001) %MON dynstat_theta_max            =   1.2000000000000E+00
(PID.TID 0000.0001) %MON dynstat_theta_min            =  -1.0000000000000E+00
(PID.TID 0000.0001) %MON dynstat_theta_mean           =   5.6540619292289E-01
(PID.TID 0000.0001) %MON dynstat_theta_sd             =   8.4904679686922E-01
(PID.TID 0000.0001) %MON dynstat_theta_del2           =   8.7164338414929E-07
(PID.TID 0000.0001) %MON dynstat_salt_max             =   3.4700000000000E+01
(PID.TID 0000.0001) %MON dynstat_salt_min             =   3.4000000000000E+01
(PID.TID 0000.0001) %MON dynstat_salt_mean            =   3.4498076031293E+01
(PID.TID 0000.0001) %MON dynstat_salt_sd              =   2.7015191530897E-01
(PID.TID 0000.0001) %MON dynstat_salt_del2            =   3.1732760875161E-07
(PID.TID 0000.0001) %MON advcfl_uvel_max              =   4.6341986816483E-04
(PID.TID 0000.0001) %MON advcfl_vvel_max              =   4.8210593926621E-04
(PID.TID 0000.0001) %MON advcfl_wvel_max              =   8.2735973326509E-04
(PID.TID 0000.0001) %MON advcfl_W_hf_max              =   8.2735973326509E-04
(PID.TID 0000.0001) %MON pe_b_mean                    =  -6.8276051317254E-01
(PID.TID 0000.0001) %MON ke_max                       =   6.8734802564996E-06
(PID.TID 0000.0001) %MON ke_mean                      =   1.9345282897884E-08
(PID.TID 0000.0001) %MON ke_vol                       =   4.6182905926842E+12
(PID.TID 0000.0001) // =======================================================
(PID.TID 0000.0001) // End MONITOR dynamic field statistics
(PID.TID 0000.0001) // =======================================================
(PID.TID 0000.0001) // =======================================================
(PID.TID 0000.0001) // Begin OBCS MONITOR field statistics
(PID.TID 0000.0001) // =======================================================
(PID.TID 0000.0001) %MON obc_N_vVel_max               =  -7.9646822635545E-08
(PID.TID 0000.0001) %MON obc_N_vVel_min               =  -7.9646822635547E-08
(PID.TID 0000.0001) %MON obc_N_vVel_mean              =  -7.9646822635547E-08
(PID.TID 0000.0001) %MON obc_N_vVel_sd                =  -4.8751603942659E-28
(PID.TID 0000.0001) %MON obc_N_vVel_Int               =  -5.2566902939461E+00
(PID.TID 0000.0001) // =======================================================
(PID.TID 0000.0001) // End OBCS MONITOR field statistics
(PID.TID 0000.0001) // =======================================================
 cg2d: Sum(rhs),rhsMax =   3.01178215278662E+00  4.53050424151314E+02
(PID.TID 0000.0001)      cg2d_init_res =   1.45298790299989E-06
(PID.TID 0000.0001)      cg2d_iters(min,last) =      -1      69
(PID.TID 0000.0001)      cg2d_last_res =   9.57850070409040E-12
(PID.TID 0000.0001) // =======================================================
(PID.TID 0000.0001) // Begin MONITOR dynamic field statistics
(PID.TID 0000.0001) // =======================================================
(PID.TID 0000.0001) %MON time_tsnumber                =                   474
(PID.TID 0000.0001) %MON time_secondsf                =   4.7400000000000E+04
(PID.TID 0000.0001) %MON dynstat_eta_max              =   5.7967917199667E+00
(PID.TID 0000.0001) %MON dynstat_eta_min              =  -1.4176224264001E+01
(PID.TID 0000.0001) %MON dynstat_eta_mean             =  -2.5268318180951E+00
(PID.TID 0000.0001) %MON dynstat_eta_sd               =   4.9418994353079E+00
(PID.TID 0000.0001) %MON dynstat_eta_del2             =   1.9058090484221E-01
(PID.TID 0000.0001) %MON dynstat_uvel_max             =   2.0375682924776E-03
(PID.TID 0000.0001) %MON dynstat_uvel_min             =  -4.6499639920281E-03
(PID.TID 0000.0001) %MON dynstat_uvel_mean            =  -1.8924449436416E-09
(PID.TID 0000.0001) %MON dynstat_uvel_sd              =   1.6216890167952E-04
(PID.TID 0000.0001) %MON dynstat_uvel_del2            =   2.9619876576590E-07
(PID.TID 0000.0001) %MON dynstat_vvel_max             =   4.8340024183353E-03
(PID.TID 0000.0001) %MON dynstat_vvel_min             =  -1.9960147997926E-03
(PID.TID 0000.0001) %MON dynstat_vvel_mean            =  -6.8743653077079E-08
(PID.TID 0000.0001) %MON dynstat_vvel_sd              =   1.1384415916204E-04
(PID.TID 0000.0001) %MON dynstat_vvel_del2            =   3.0424579678990E-07
(PID.TID 0000.0001) %MON dynstat_wvel_max             =   1.4259656568709E-04
(PID.TID 0000.0001) %MON dynstat_wvel_min             =  -1.6612930326974E-04
(PID.TID 0000.0001) %MON dynstat_wvel_mean            =   1.4714909138728E-10
(PID.TID 0000.0001) %MON dynstat_wvel_sd              =   1.3134310636403E-05
(PID.TID 0000.0001) %MON dynstat_wvel_del2            =   6.1387125967253E-08
(PID.TID 0000.0001) %MON dynstat_theta_max            =   1.2000000000000E+00
(PID.TID 0000.0001) %MON dynstat_theta_min            =  -1.0000000000000E+00
(PID.TID 0000.0001) %MON dynstat_theta_mean           =   5.6540595621905E-01
(PID.TID 0000.0001) %MON dynstat_theta_sd             =   8.4904673193691E-01
(PID.TID 0000.0001) %MON dynstat_theta_del2           =   8.7266776946952E-07
(PID.TID 0000.0001) %MON dynstat_salt_max             =   3.4700000000000E+01
(PID.TID 0000.0001) %MON dynstat_salt_min             =   3.4000000000000E+01
(PID.TID 0000.0001) %MON dynstat_salt_mean            =   3.4498075937200E+01
(PID.TID 0000.0001) %MON dynstat_salt_sd              =   2.7015189430094E-01
(PID.TID 0000.0001) %MON dynstat_salt_del2            =   3.1782924703818E-07
(PID.TID 0000.0001) %MON advcfl_uvel_max              =   4.6499639920281E-04
(PID.TID 0000.0001) %MON advcfl_vvel_max              =   4.8340024183353E-04
(PID.TID 0000.0001) %MON advcfl_wvel_max              =   8.3064651634870E-04
(PID.TID 0000.0001) %MON advcfl_W_hf_max              =   8.3064651634870E-04
(PID.TID 0000.0001) %MON pe_b_mean                    =  -6.8275991777991E-01
(PID.TID 0000.0001) %MON ke_max                       =   6.9174183968539E-06
(PID.TID 0000.0001) %MON ke_mean                      =   1.9382230994707E-08
(PID.TID 0000.0001) %MON ke_vol                       =   4.6182906058366E+12
(PID.TID 0000.0001) // =======================================================
(PID.TID 0000.0001) // End MONITOR dynamic field statistics
(PID.TID 0000.0001) // =======================================================
(PID.TID 0000.0001) // =======================================================
(PID.TID 0000.0001) // Begin OBCS MONITOR field statistics
(PID.TID 0000.0001) // =======================================================
(PID.TID 0000.0001) %MON obc_N_vVel_max               =  -7.9317157495946E-08
(PID.TID 0000.0001) %MON obc_N_vVel_min               =  -7.9317157495947E-08
(PID.TID 0000.0001) %MON obc_N_vVel_mean              =  -7.9317157495946E-08
(PID.TID 0000.0001) %MON obc_N_vVel_sd                =  -5.7586846081134E-29
(PID.TID 0000.0001) %MON obc_N_vVel_Int               =  -5.2349323947325E+00
(PID.TID 0000.0001) // =======================================================
(PID.TID 0000.0001) // End OBCS MONITOR field statistics
(PID.TID 0000.0001) // =======================================================
 cg2d: Sum(rhs),rhsMax =   3.01177957296795E+00  4.53050414576336E+02
(PID.TID 0000.0001)      cg2d_init_res =   1.44964979127272E-06
(PID.TID 0000.0001)      cg2d_iters(min,last) =      -1      69
(PID.TID 0000.0001)      cg2d_last_res =   9.62063325501757E-12
(PID.TID 0000.0001) // =======================================================
(PID.TID 0000.0001) // Begin MONITOR dynamic field statistics
(PID.TID 0000.0001) // =======================================================
(PID.TID 0000.0001) %MON time_tsnumber                =                   475
(PID.TID 0000.0001) %MON time_secondsf                =   4.7500000000000E+04
(PID.TID 0000.0001) %MON dynstat_eta_max              =   5.7967945108758E+00
(PID.TID 0000.0001) %MON dynstat_eta_min              =  -1.4176218340833E+01
(PID.TID 0000.0001) %MON dynstat_eta_mean             =  -2.5268296002698E+00
(PID.TID 0000.0001) %MON dynstat_eta_sd               =   4.9418987330782E+00
(PID.TID 0000.0001) %MON dynstat_eta_del2             =   1.9058090800333E-01
(PID.TID 0000.0001) %MON dynstat_uvel_max             =   2.0407153953403E-03
(PID.TID 0000.0001) %MON dynstat_uvel_min             =  -4.6657645678314E-03
(PID.TID 0000.0001) %MON dynstat_uvel_mean            =  -1.9122086038542E-09
(PID.TID 0000.0001) %MON dynstat_uvel_sd              =   1.6253200339400E-04
(PID.TID 0000.0001) %MON dynstat_uvel_del2            =   2.9651766756389E-07
(PID.TID 0000.0001) %MON dynstat_vvel_max             =   4.8469555810231E-03
(PID.TID 0000.0001) %MON dynstat_vvel_min             =  -1.9953175944103E-03
(PID.TID 0000.0001) %MON dynstat_vvel_mean            =  -6.7951134262296E-08
(PID.TID 0000.0001) %MON dynstat_vvel_sd              =   1.1366648488240E-04
(PID.TID 0000.0001) %MON dynstat_vvel_del2            =   3.0416976120135E-07
(PID.TID 0000.0001) %MON dynstat_wvel_max             =   1.4332332066284E-04
(PID.TID 0000.0001) %MON dynstat_wvel_min             =  -1.6678759566486E-04
(PID.TID 0000.0001) %MON dynstat_wvel_mean            =   1.4905722339000E-10
(PID.TID 0000.0001) %MON dynstat_wvel_sd              =   1.2953975058448E-05
(PID.TID 0000.0001) %MON dynstat_wvel_del2            =   6.0994539375138E-08
(PID.TID 0000.0001) %MON dynstat_theta_max            =   1.2000000000000E+00
(PID.TID 0000.0001) %MON dynstat_theta_min            =  -1.0000000000000E+00
(PID.TID 0000.0001) %MON dynstat_theta_mean           =   5.6540571936554E-01
(PID.TID 0000.0001) %MON dynstat_theta_sd             =   8.4904666679833E-01
(PID.TID 0000.0001) %MON dynstat_theta_del2           =   8.7374446730254E-07
(PID.TID 0000.0001) %MON dynstat_salt_max             =   3.4700000000000E+01
(PID.TID 0000.0001) %MON dynstat_salt_min             =   3.4000000000000E+01
(PID.TID 0000.0001) %MON dynstat_salt_mean            =   3.4498075843038E+01
(PID.TID 0000.0001) %MON dynstat_salt_sd              =   2.7015187321415E-01
(PID.TID 0000.0001) %MON dynstat_salt_del2            =   3.1834568658285E-07
(PID.TID 0000.0001) %MON advcfl_uvel_max              =   4.6657645678314E-04
(PID.TID 0000.0001) %MON advcfl_vvel_max              =   4.8469555810231E-04
(PID.TID 0000.0001) %MON advcfl_wvel_max              =   8.3393797832430E-04
(PID.TID 0000.0001) %MON advcfl_W_hf_max              =   8.3393797832430E-04
(PID.TID 0000.0001) %MON pe_b_mean                    =  -6.8275932182414E-01
(PID.TID 0000.0001) %MON ke_max                       =   6.9616055063799E-06
(PID.TID 0000.0001) %MON ke_mean                      =   1.9419861828652E-08
(PID.TID 0000.0001) %MON ke_vol                       =   4.6182906190005E+12
(PID.TID 0000.0001) // =======================================================
(PID.TID 0000.0001) // End MONITOR dynamic field statistics
(PID.TID 0000.0001) // =======================================================
(PID.TID 0000.0001) // =======================================================
(PID.TID 0000.0001) // Begin OBCS MONITOR field statistics
(PID.TID 0000.0001) // =======================================================
(PID.TID 0000.0001) %MON obc_N_vVel_max               =  -7.8741784387707E-08
(PID.TID 0000.0001) %MON obc_N_vVel_min               =  -7.8741784387708E-08
(PID.TID 0000.0001) %MON obc_N_vVel_mean              =  -7.8741784387708E-08
(PID.TID 0000.0001) %MON obc_N_vVel_sd                =   1.1614439925920E-14
(PID.TID 0000.0001) %MON obc_N_vVel_Int               =  -5.1969577695887E+00
(PID.TID 0000.0001) // =======================================================
(PID.TID 0000.0001) // End OBCS MONITOR field statistics
(PID.TID 0000.0001) // =======================================================
 cg2d: Sum(rhs),rhsMax =   3.01177699136783E+00  4.53050405013037E+02
(PID.TID 0000.0001)      cg2d_init_res =   1.44602378856518E-06
(PID.TID 0000.0001)      cg2d_iters(min,last) =      -1      69
(PID.TID 0000.0001)      cg2d_last_res =   9.65627300479738E-12
(PID.TID 0000.0001) // =======================================================
(PID.TID 0000.0001) // Begin MONITOR dynamic field statistics
(PID.TID 0000.0001) // =======================================================
(PID.TID 0000.0001) %MON time_tsnumber                =                   476
(PID.TID 0000.0001) %MON time_secondsf                =   4.7600000000000E+04
(PID.TID 0000.0001) %MON dynstat_eta_max              =   5.7967973003360E+00
(PID.TID 0000.0001) %MON dynstat_eta_min              =  -1.4176212419651E+01
(PID.TID 0000.0001) %MON dynstat_eta_mean             =  -2.5268273810151E+00
(PID.TID 0000.0001) %MON dynstat_eta_sd               =   4.9418980308003E+00
(PID.TID 0000.0001) %MON dynstat_eta_del2             =   1.9058091117942E-01
(PID.TID 0000.0001) %MON dynstat_uvel_max             =   2.0438684360595E-03
(PID.TID 0000.0001) %MON dynstat_uvel_min             =  -4.6816005463040E-03
(PID.TID 0000.0001) %MON dynstat_uvel_mean            =  -1.9302895452148E-09
(PID.TID 0000.0001) %MON dynstat_uvel_sd              =   1.6289441607952E-04
(PID.TID 0000.0001) %MON dynstat_uvel_del2            =   2.9683957584009E-07
(PID.TID 0000.0001) %MON dynstat_vvel_max             =   4.8599189719392E-03
(PID.TID 0000.0001) %MON dynstat_vvel_min             =  -1.9945769225789E-03
(PID.TID 0000.0001) %MON dynstat_vvel_mean            =  -6.6940664818127E-08
(PID.TID 0000.0001) %MON dynstat_vvel_sd              =   1.1349951743380E-04
(PID.TID 0000.0001) %MON dynstat_vvel_del2            =   3.0408835531001E-07
(PID.TID 0000.0001) %MON dynstat_wvel_max             =   1.4405177176744E-04
(PID.TID 0000.0001) %MON dynstat_wvel_min             =  -1.6744682036444E-04
(PID.TID 0000.0001) %MON dynstat_wvel_mean            =   1.5075267193180E-10
(PID.TID 0000.0001) %MON dynstat_wvel_sd              =   1.2773181112169E-05
(PID.TID 0000.0001) %MON dynstat_wvel_del2            =   6.0565831493951E-08
(PID.TID 0000.0001) %MON dynstat_theta_max            =   1.2000000000000E+00
(PID.TID 0000.0001) %MON dynstat_theta_min            =  -1.0000000000000E+00
(PID.TID 0000.0001) %MON dynstat_theta_mean           =   5.6540548236010E-01
(PID.TID 0000.0001) %MON dynstat_theta_sd             =   8.4904660144803E-01
(PID.TID 0000.0001) %MON dynstat_theta_del2           =   8.7485384145343E-07
(PID.TID 0000.0001) %MON dynstat_salt_max             =   3.4700000000000E+01
(PID.TID 0000.0001) %MON dynstat_salt_min             =   3.4000000000000E+01
(PID.TID 0000.0001) %MON dynstat_salt_mean            =   3.4498075748806E+01
(PID.TID 0000.0001) %MON dynstat_salt_sd              =   2.7015185204683E-01
(PID.TID 0000.0001) %MON dynstat_salt_del2            =   3.1887144877953E-07
(PID.TID 0000.0001) %MON advcfl_uvel_max              =   4.6816005463040E-04
(PID.TID 0000.0001) %MON advcfl_vvel_max              =   4.8599189719392E-04
(PID.TID 0000.0001) %MON advcfl_wvel_max              =   8.3723410182222E-04
(PID.TID 0000.0001) %MON advcfl_W_hf_max              =   8.3723410182222E-04
(PID.TID 0000.0001) %MON pe_b_mean                    =  -6.8275872534946E-01
(PID.TID 0000.0001) %MON ke_max                       =   7.0060430728929E-06
(PID.TID 0000.0001) %MON ke_mean                      =   1.9458758573292E-08
(PID.TID 0000.0001) %MON ke_vol                       =   4.6182906321744E+12
(PID.TID 0000.0001) // =======================================================
(PID.TID 0000.0001) // End MONITOR dynamic field statistics
(PID.TID 0000.0001) // =======================================================
(PID.TID 0000.0001) // =======================================================
(PID.TID 0000.0001) // Begin OBCS MONITOR field statistics
(PID.TID 0000.0001) // =======================================================
(PID.TID 0000.0001) %MON obc_N_vVel_max               =  -7.7946445564070E-08
(PID.TID 0000.0001) %MON obc_N_vVel_min               =  -7.7946445564072E-08
(PID.TID 0000.0001) %MON obc_N_vVel_mean              =  -7.7946445564070E-08
(PID.TID 0000.0001) %MON obc_N_vVel_sd                =   2.0562817054053E-14
(PID.TID 0000.0001) %MON obc_N_vVel_Int               =  -5.1444654072287E+00
(PID.TID 0000.0001) // =======================================================
(PID.TID 0000.0001) // End OBCS MONITOR field statistics
(PID.TID 0000.0001) // =======================================================
 cg2d: Sum(rhs),rhsMax =   3.01177440824408E+00  4.53050395459946E+02
(PID.TID 0000.0001)      cg2d_init_res =   1.44222461861247E-06
(PID.TID 0000.0001)      cg2d_iters(min,last) =      -1      69
(PID.TID 0000.0001)      cg2d_last_res =   9.68489577834184E-12
(PID.TID 0000.0001) // =======================================================
(PID.TID 0000.0001) // Begin MONITOR dynamic field statistics
(PID.TID 0000.0001) // =======================================================
(PID.TID 0000.0001) %MON time_tsnumber                =                   477
(PID.TID 0000.0001) %MON time_secondsf                =   4.7700000000000E+04
(PID.TID 0000.0001) %MON dynstat_eta_max              =   5.7968000878965E+00
(PID.TID 0000.0001) %MON dynstat_eta_min              =  -1.4176206500956E+01
(PID.TID 0000.0001) %MON dynstat_eta_mean             =  -2.5268251605391E+00
(PID.TID 0000.0001) %MON dynstat_eta_sd               =   4.9418973285109E+00
(PID.TID 0000.0001) %MON dynstat_eta_del2             =   1.9058091437040E-01
(PID.TID 0000.0001) %MON dynstat_uvel_max             =   2.0470274852222E-03
(PID.TID 0000.0001) %MON dynstat_uvel_min             =  -4.6974720645325E-03
(PID.TID 0000.0001) %MON dynstat_uvel_mean            =  -1.9463039575531E-09
(PID.TID 0000.0001) %MON dynstat_uvel_sd              =   1.6325605551081E-04
(PID.TID 0000.0001) %MON dynstat_uvel_del2            =   2.9716442080665E-07
(PID.TID 0000.0001) %MON dynstat_vvel_max             =   4.8728926809125E-03
(PID.TID 0000.0001) %MON dynstat_vvel_min             =  -1.9937928424252E-03
(PID.TID 0000.0001) %MON dynstat_vvel_mean            =  -6.5752314770692E-08
(PID.TID 0000.0001) %MON dynstat_vvel_sd              =   1.1334848334711E-04
(PID.TID 0000.0001) %MON dynstat_vvel_del2            =   3.0400903675600E-07
(PID.TID 0000.0001) %MON dynstat_wvel_max             =   1.4478191955946E-04
(PID.TID 0000.0001) %MON dynstat_wvel_min             =  -1.6810697384972E-04
(PID.TID 0000.0001) %MON dynstat_wvel_mean            =   1.5218757943833E-10
(PID.TID 0000.0001) %MON dynstat_wvel_sd              =   1.2596550727805E-05
(PID.TID 0000.0001) %MON dynstat_wvel_del2            =   6.0111342514403E-08
(PID.TID 0000.0001) %MON dynstat_theta_max            =   1.2000000000000E+00
(PID.TID 0000.0001) %MON dynstat_theta_min            =  -1.0000000000000E+00
(PID.TID 0000.0001) %MON dynstat_theta_mean           =   5.6540524520001E-01
(PID.TID 0000.0001) %MON dynstat_theta_sd             =   8.4904653588141E-01
(PID.TID 0000.0001) %MON dynstat_theta_del2           =   8.7597483113095E-07
(PID.TID 0000.0001) %MON dynstat_salt_max             =   3.4700000000000E+01
(PID.TID 0000.0001) %MON dynstat_salt_min             =   3.4000000000000E+01
(PID.TID 0000.0001) %MON dynstat_salt_mean            =   3.4498075654504E+01
(PID.TID 0000.0001) %MON dynstat_salt_sd              =   2.7015183079751E-01
(PID.TID 0000.0001) %MON dynstat_salt_del2            =   3.1940070846513E-07
(PID.TID 0000.0001) %MON advcfl_uvel_max              =   4.6974720645325E-04
(PID.TID 0000.0001) %MON advcfl_vvel_max              =   4.8728926809125E-04
(PID.TID 0000.0001) %MON advcfl_wvel_max              =   8.4053486924862E-04
(PID.TID 0000.0001) %MON advcfl_W_hf_max              =   8.4053486924862E-04
(PID.TID 0000.0001) %MON pe_b_mean                    =  -6.8275812839126E-01
(PID.TID 0000.0001) %MON ke_max                       =   7.0507325901305E-06
(PID.TID 0000.0001) %MON ke_mean                      =   1.9499494028164E-08
(PID.TID 0000.0001) %MON ke_vol                       =   4.6182906453568E+12
(PID.TID 0000.0001) // =======================================================
(PID.TID 0000.0001) // End MONITOR dynamic field statistics
(PID.TID 0000.0001) // =======================================================
(PID.TID 0000.0001) // =======================================================
(PID.TID 0000.0001) // Begin OBCS MONITOR field statistics
(PID.TID 0000.0001) // =======================================================
(PID.TID 0000.0001) %MON obc_N_vVel_max               =  -7.6963672282546E-08
(PID.TID 0000.0001) %MON obc_N_vVel_min               =  -7.6963672282547E-08
(PID.TID 0000.0001) %MON obc_N_vVel_mean              =  -7.6963672282546E-08
(PID.TID 0000.0001) %MON obc_N_vVel_sd                =   1.6353098998964E-14
(PID.TID 0000.0001) %MON obc_N_vVel_Int               =  -5.0796023706480E+00
(PID.TID 0000.0001) // =======================================================
(PID.TID 0000.0001) // End OBCS MONITOR field statistics
(PID.TID 0000.0001) // =======================================================
 cg2d: Sum(rhs),rhsMax =   3.01177182379963E+00  4.53050385915566E+02
(PID.TID 0000.0001)      cg2d_init_res =   1.43836476989704E-06
(PID.TID 0000.0001)      cg2d_iters(min,last) =      -1      69
(PID.TID 0000.0001)      cg2d_last_res =   9.70501911087597E-12
(PID.TID 0000.0001) // =======================================================
(PID.TID 0000.0001) // Begin MONITOR dynamic field statistics
(PID.TID 0000.0001) // =======================================================
(PID.TID 0000.0001) %MON time_tsnumber                =                   478
(PID.TID 0000.0001) %MON time_secondsf                =   4.7800000000000E+04
(PID.TID 0000.0001) %MON dynstat_eta_max              =   5.7968028731634E+00
(PID.TID 0000.0001) %MON dynstat_eta_min              =  -1.4176200585150E+01
(PID.TID 0000.0001) %MON dynstat_eta_mean             =  -2.5268229390038E+00
(PID.TID 0000.0001) %MON dynstat_eta_sd               =   4.9418966262297E+00
(PID.TID 0000.0001) %MON dynstat_eta_del2             =   1.9058091757624E-01
(PID.TID 0000.0001) %MON dynstat_uvel_max             =   2.0501926121295E-03
(PID.TID 0000.0001) %MON dynstat_uvel_min             =  -4.7133792594156E-03
(PID.TID 0000.0001) %MON dynstat_uvel_mean            =  -1.9599424230085E-09
(PID.TID 0000.0001) %MON dynstat_uvel_sd              =   1.6361684437393E-04
(PID.TID 0000.0001) %MON dynstat_uvel_del2            =   2.9749213944312E-07
(PID.TID 0000.0001) %MON dynstat_vvel_max             =   4.8858767965840E-03
(PID.TID 0000.0001) %MON dynstat_vvel_min             =  -1.9929654167470E-03
(PID.TID 0000.0001) %MON dynstat_vvel_mean            =  -6.4431376787429E-08
(PID.TID 0000.0001) %MON dynstat_vvel_sd              =   1.1321838352875E-04
(PID.TID 0000.0001) %MON dynstat_vvel_del2            =   3.0393964142626E-07
(PID.TID 0000.0001) %MON dynstat_wvel_max             =   1.4551376464887E-04
(PID.TID 0000.0001) %MON dynstat_wvel_min             =  -1.6876805268201E-04
(PID.TID 0000.0001) %MON dynstat_wvel_mean            =   1.5332289287518E-10
(PID.TID 0000.0001) %MON dynstat_wvel_sd              =   1.2429000854850E-05
(PID.TID 0000.0001) %MON dynstat_wvel_del2            =   5.9642630646667E-08
(PID.TID 0000.0001) %MON dynstat_theta_max            =   1.2000000000000E+00
(PID.TID 0000.0001) %MON dynstat_theta_min            =  -1.0000000000000E+00
(PID.TID 0000.0001) %MON dynstat_theta_mean           =   5.6540500788177E-01
(PID.TID 0000.0001) %MON dynstat_theta_sd             =   8.4904647011360E-01
(PID.TID 0000.0001) %MON dynstat_theta_del2           =   8.7708549772827E-07
(PID.TID 0000.0001) %MON dynstat_salt_max             =   3.4700000000000E+01
(PID.TID 0000.0001) %MON dynstat_salt_min             =   3.4000000000000E+01
(PID.TID 0000.0001) %MON dynstat_salt_mean            =   3.4498075560131E+01
(PID.TID 0000.0001) %MON dynstat_salt_sd              =   2.7015180947099E-01
(PID.TID 0000.0001) %MON dynstat_salt_del2            =   3.1992731810167E-07
(PID.TID 0000.0001) %MON advcfl_uvel_max              =   4.7133792594156E-04
(PID.TID 0000.0001) %MON advcfl_vvel_max              =   4.8858767965840E-04
(PID.TID 0000.0001) %MON advcfl_wvel_max              =   8.4384026341007E-04
(PID.TID 0000.0001) %MON advcfl_W_hf_max              =   8.4384026341007E-04
(PID.TID 0000.0001) %MON pe_b_mean                    =  -6.8275753097406E-01
(PID.TID 0000.0001) %MON ke_max                       =   7.0956755578154E-06
(PID.TID 0000.0001) %MON ke_mean                      =   1.9542613905550E-08
(PID.TID 0000.0001) %MON ke_vol                       =   4.6182906585464E+12
(PID.TID 0000.0001) // =======================================================
(PID.TID 0000.0001) // End MONITOR dynamic field statistics
(PID.TID 0000.0001) // =======================================================
(PID.TID 0000.0001) // =======================================================
(PID.TID 0000.0001) // Begin OBCS MONITOR field statistics
(PID.TID 0000.0001) // =======================================================
(PID.TID 0000.0001) %MON obc_N_vVel_max               =  -7.5831553726399E-08
(PID.TID 0000.0001) %MON obc_N_vVel_min               =  -7.5831553726400E-08
(PID.TID 0000.0001) %MON obc_N_vVel_mean              =  -7.5831553726399E-08
(PID.TID 0000.0001) %MON obc_N_vVel_sd                =   1.7427319028184E-14
(PID.TID 0000.0001) %MON obc_N_vVel_Int               =  -5.0048825459424E+00
(PID.TID 0000.0001) // =======================================================
(PID.TID 0000.0001) // End OBCS MONITOR field statistics
(PID.TID 0000.0001) // =======================================================
 cg2d: Sum(rhs),rhsMax =   3.01176923818753E+00  4.53050376378382E+02
(PID.TID 0000.0001)      cg2d_init_res =   1.43457417665892E-06
(PID.TID 0000.0001)      cg2d_iters(min,last) =      -1      69
(PID.TID 0000.0001)      cg2d_last_res =   9.71690199488180E-12
(PID.TID 0000.0001) // =======================================================
(PID.TID 0000.0001) // Begin MONITOR dynamic field statistics
(PID.TID 0000.0001) // =======================================================
(PID.TID 0000.0001) %MON time_tsnumber                =                   479
(PID.TID 0000.0001) %MON time_secondsf                =   4.7900000000000E+04
(PID.TID 0000.0001) %MON dynstat_eta_max              =   5.7968056557943E+00
(PID.TID 0000.0001) %MON dynstat_eta_min              =  -1.4176194672511E+01
(PID.TID 0000.0001) %MON dynstat_eta_mean             =  -2.5268207165291E+00
(PID.TID 0000.0001) %MON dynstat_eta_sd               =   4.9418959239575E+00
(PID.TID 0000.0001) %MON dynstat_eta_del2             =   1.9058092079683E-01
(PID.TID 0000.0001) %MON dynstat_uvel_max             =   2.0533638849827E-03
(PID.TID 0000.0001) %MON dynstat_uvel_min             =  -4.7293222679636E-03
(PID.TID 0000.0001) %MON dynstat_uvel_mean            =  -1.9709737495545E-09
(PID.TID 0000.0001) %MON dynstat_uvel_sd              =   1.6397671351558E-04
(PID.TID 0000.0001) %MON dynstat_uvel_del2            =   2.9782267652653E-07
(PID.TID 0000.0001) %MON dynstat_vvel_max             =   4.8988714066847E-03
(PID.TID 0000.0001) %MON dynstat_vvel_min             =  -1.9920947122953E-03
(PID.TID 0000.0001) %MON dynstat_vvel_mean            =  -6.3026706478087E-08
(PID.TID 0000.0001) %MON dynstat_vvel_sd              =   1.1311383387198E-04
(PID.TID 0000.0001) %MON dynstat_vvel_del2            =   3.0388799622422E-07
(PID.TID 0000.0001) %MON dynstat_wvel_max             =   1.4624730769765E-04
(PID.TID 0000.0001) %MON dynstat_wvel_min             =  -1.6943005343886E-04
(PID.TID 0000.0001) %MON dynstat_wvel_mean            =   1.5412987780878E-10
(PID.TID 0000.0001) %MON dynstat_wvel_sd              =   1.2275563443992E-05
(PID.TID 0000.0001) %MON dynstat_wvel_del2            =   5.9171876075826E-08
(PID.TID 0000.0001) %MON dynstat_theta_max            =   1.2000000000000E+00
(PID.TID 0000.0001) %MON dynstat_theta_min            =  -1.0000000000000E+00
(PID.TID 0000.0001) %MON dynstat_theta_mean           =   5.6540477040199E-01
(PID.TID 0000.0001) %MON dynstat_theta_sd             =   8.4904640415819E-01
(PID.TID 0000.0001) %MON dynstat_theta_del2           =   8.7816379007820E-07
(PID.TID 0000.0001) %MON dynstat_salt_max             =   3.4700000000000E+01
(PID.TID 0000.0001) %MON dynstat_salt_min             =   3.4000000000000E+01
(PID.TID 0000.0001) %MON dynstat_salt_mean            =   3.4498075465685E+01
(PID.TID 0000.0001) %MON dynstat_salt_sd              =   2.7015178807180E-01
(PID.TID 0000.0001) %MON dynstat_salt_del2            =   3.2044517567457E-07
(PID.TID 0000.0001) %MON advcfl_uvel_max              =   4.7293222679636E-04
(PID.TID 0000.0001) %MON advcfl_vvel_max              =   4.8988714066847E-04
(PID.TID 0000.0001) %MON advcfl_wvel_max              =   8.4715026719429E-04
(PID.TID 0000.0001) %MON advcfl_W_hf_max              =   8.4715026719429E-04
(PID.TID 0000.0001) %MON pe_b_mean                    =  -6.8275693311311E-01
(PID.TID 0000.0001) %MON ke_max                       =   7.1408734827274E-06
(PID.TID 0000.0001) %MON ke_mean                      =   1.9588620102212E-08
(PID.TID 0000.0001) %MON ke_vol                       =   4.6182906717423E+12
(PID.TID 0000.0001) // =======================================================
(PID.TID 0000.0001) // End MONITOR dynamic field statistics
(PID.TID 0000.0001) // =======================================================
(PID.TID 0000.0001) // =======================================================
(PID.TID 0000.0001) // Begin OBCS MONITOR field statistics
(PID.TID 0000.0001) // =======================================================
(PID.TID 0000.0001) %MON obc_N_vVel_max               =  -7.4592432304051E-08
(PID.TID 0000.0001) %MON obc_N_vVel_min               =  -7.4592432304053E-08
(PID.TID 0000.0001) %MON obc_N_vVel_mean              =  -7.4592432304053E-08
(PID.TID 0000.0001) %MON obc_N_vVel_sd                =  -8.1252673237764E-29
(PID.TID 0000.0001) %MON obc_N_vVel_Int               =  -4.9231005320675E+00
(PID.TID 0000.0001) // =======================================================
(PID.TID 0000.0001) // End OBCS MONITOR field statistics
(PID.TID 0000.0001) // =======================================================
 cg2d: Sum(rhs),rhsMax =   3.01176665149645E+00  4.53050366846957E+02
(PID.TID 0000.0001)      cg2d_init_res =   1.43095956648100E-06
(PID.TID 0000.0001)      cg2d_iters(min,last) =      -1      69
(PID.TID 0000.0001)      cg2d_last_res =   9.72453906250230E-12
(PID.TID 0000.0001) // =======================================================
(PID.TID 0000.0001) // Begin MONITOR dynamic field statistics
(PID.TID 0000.0001) // =======================================================
(PID.TID 0000.0001) %MON time_tsnumber                =                   480
(PID.TID 0000.0001) %MON time_secondsf                =   4.8000000000000E+04
(PID.TID 0000.0001) %MON dynstat_eta_max              =   5.7968084355734E+00
(PID.TID 0000.0001) %MON dynstat_eta_min              =  -1.4176188763195E+01
(PID.TID 0000.0001) %MON dynstat_eta_mean             =  -2.5268184931813E+00
(PID.TID 0000.0001) %MON dynstat_eta_sd               =   4.9418952216744E+00
(PID.TID 0000.0001) %MON dynstat_eta_del2             =   1.9058092403194E-01
(PID.TID 0000.0001) %MON dynstat_uvel_max             =   2.0565413709299E-03
(PID.TID 0000.0001) %MON dynstat_uvel_min             =  -4.7453012271861E-03
(PID.TID 0000.0001) %MON dynstat_uvel_mean            =  -1.9792714975909E-09
(PID.TID 0000.0001) %MON dynstat_uvel_sd              =   1.6433560302459E-04
(PID.TID 0000.0001) %MON dynstat_uvel_del2            =   2.9815598655875E-07
(PID.TID 0000.0001) %MON dynstat_vvel_max             =   4.9118765986942E-03
(PID.TID 0000.0001) %MON dynstat_vvel_min             =  -1.9911807986226E-03
(PID.TID 0000.0001) %MON dynstat_vvel_mean            =  -6.1589042278618E-08
(PID.TID 0000.0001) %MON dynstat_vvel_sd              =   1.1303890913001E-04
(PID.TID 0000.0001) %MON dynstat_vvel_del2            =   3.0386155256418E-07
(PID.TID 0000.0001) %MON dynstat_wvel_max             =   1.4698254939143E-04
(PID.TID 0000.0001) %MON dynstat_wvel_min             =  -1.7009297284824E-04
(PID.TID 0000.0001) %MON dynstat_wvel_mean            =   1.5459148194940E-10
(PID.TID 0000.0001) %MON dynstat_wvel_sd              =   1.2141169485593E-05
(PID.TID 0000.0001) %MON dynstat_wvel_del2            =   5.8711303358368E-08
(PID.TID 0000.0001) %MON dynstat_theta_max            =   1.2000000000000E+00
(PID.TID 0000.0001) %MON dynstat_theta_min            =  -1.0000000000000E+00
(PID.TID 0000.0001) %MON dynstat_theta_mean           =   5.6540453275652E-01
(PID.TID 0000.0001) %MON dynstat_theta_sd             =   8.4904633800890E-01
(PID.TID 0000.0001) %MON dynstat_theta_del2           =   8.7918841790742E-07
(PID.TID 0000.0001) %MON dynstat_salt_max             =   3.4700000000000E+01
(PID.TID 0000.0001) %MON dynstat_salt_min             =   3.4000000000000E+01
(PID.TID 0000.0001) %MON dynstat_salt_mean            =   3.4498075371165E+01
(PID.TID 0000.0001) %MON dynstat_salt_sd              =   2.7015176659776E-01
(PID.TID 0000.0001) %MON dynstat_salt_del2            =   3.2094838546152E-07
(PID.TID 0000.0001) %MON advcfl_uvel_max              =   4.7453012271861E-04
(PID.TID 0000.0001) %MON advcfl_vvel_max              =   4.9118765986942E-04
(PID.TID 0000.0001) %MON advcfl_wvel_max              =   8.5046486424121E-04
(PID.TID 0000.0001) %MON advcfl_W_hf_max              =   8.5046486424121E-04
(PID.TID 0000.0001) %MON pe_b_mean                    =  -6.8275633481188E-01
(PID.TID 0000.0001) %MON ke_max                       =   7.1863278787783E-06
(PID.TID 0000.0001) %MON ke_mean                      =   1.9637954555314E-08
(PID.TID 0000.0001) %MON ke_vol                       =   4.6182906849438E+12
(PID.TID 0000.0001) // =======================================================
(PID.TID 0000.0001) // End MONITOR dynamic field statistics
(PID.TID 0000.0001) // =======================================================
(PID.TID 0000.0001) // =======================================================
(PID.TID 0000.0001) // Begin OBCS MONITOR field statistics
(PID.TID 0000.0001) // =======================================================
(PID.TID 0000.0001) %MON obc_N_vVel_max               =  -7.3291495377204E-08
(PID.TID 0000.0001) %MON obc_N_vVel_min               =  -7.3291495377205E-08
(PID.TID 0000.0001) %MON obc_N_vVel_mean              =  -7.3291495377204E-08
(PID.TID 0000.0001) %MON obc_N_vVel_sd                =   8.6112092699443E-15
(PID.TID 0000.0001) %MON obc_N_vVel_Int               =  -4.8372386948955E+00
(PID.TID 0000.0001) // =======================================================
(PID.TID 0000.0001) // End OBCS MONITOR field statistics
(PID.TID 0000.0001) // =======================================================
 cg2d: Sum(rhs),rhsMax =   3.01176406375618E+00  4.53050357319958E+02
(PID.TID 0000.0001)      cg2d_init_res =   1.42762837850021E-06
(PID.TID 0000.0001)      cg2d_iters(min,last) =      -1      69
(PID.TID 0000.0001)      cg2d_last_res =   9.73294691755625E-12
(PID.TID 0000.0001) // =======================================================
(PID.TID 0000.0001) // Begin MONITOR dynamic field statistics
(PID.TID 0000.0001) // =======================================================
(PID.TID 0000.0001) %MON time_tsnumber                =                   481
(PID.TID 0000.0001) %MON time_secondsf                =   4.8100000000000E+04
(PID.TID 0000.0001) %MON dynstat_eta_max              =   5.7968112123709E+00
(PID.TID 0000.0001) %MON dynstat_eta_min              =  -1.4176182857233E+01
(PID.TID 0000.0001) %MON dynstat_eta_mean             =  -2.5268162689780E+00
(PID.TID 0000.0001) %MON dynstat_eta_sd               =   4.9418945193441E+00
(PID.TID 0000.0001) %MON dynstat_eta_del2             =   1.9058092728146E-01
(PID.TID 0000.0001) %MON dynstat_uvel_max             =   2.0597251359895E-03
(PID.TID 0000.0001) %MON dynstat_uvel_min             =  -4.7613162743509E-03
(PID.TID 0000.0001) %MON dynstat_uvel_mean            =  -1.9848005591428E-09
(PID.TID 0000.0001) %MON dynstat_uvel_sd              =   1.6469346313724E-04
(PID.TID 0000.0001) %MON dynstat_uvel_del2            =   2.9849203508869E-07
(PID.TID 0000.0001) %MON dynstat_vvel_max             =   4.9248924599363E-03
(PID.TID 0000.0001) %MON dynstat_vvel_min             =  -1.9902237474225E-03
(PID.TID 0000.0001) %MON dynstat_vvel_mean            =  -6.0169310891230E-08
(PID.TID 0000.0001) %MON dynstat_vvel_sd              =   1.1299699698940E-04
(PID.TID 0000.0001) %MON dynstat_vvel_del2            =   3.0386706842723E-07
(PID.TID 0000.0001) %MON dynstat_wvel_max             =   1.4771949044166E-04
(PID.TID 0000.0001) %MON dynstat_wvel_min             =  -1.7075680768250E-04
(PID.TID 0000.0001) %MON dynstat_wvel_mean            =   1.5470237940731E-10
(PID.TID 0000.0001) %MON dynstat_wvel_sd              =   1.2030406696085E-05
(PID.TID 0000.0001) %MON dynstat_wvel_del2            =   5.8272674635961E-08
(PID.TID 0000.0001) %MON dynstat_theta_max            =   1.2000000000000E+00
(PID.TID 0000.0001) %MON dynstat_theta_min            =  -1.0000000000000E+00
(PID.TID 0000.0001) %MON dynstat_theta_mean           =   5.6540429494108E-01
(PID.TID 0000.0001) %MON dynstat_theta_sd             =   8.4904627165627E-01
(PID.TID 0000.0001) %MON dynstat_theta_del2           =   8.8013925583254E-07
(PID.TID 0000.0001) %MON dynstat_salt_max             =   3.4700000000000E+01
(PID.TID 0000.0001) %MON dynstat_salt_min             =   3.4000000000000E+01
(PID.TID 0000.0001) %MON dynstat_salt_mean            =   3.4498075276570E+01
(PID.TID 0000.0001) %MON dynstat_salt_sd              =   2.7015174504584E-01
(PID.TID 0000.0001) %MON dynstat_salt_del2            =   3.2143141111189E-07
(PID.TID 0000.0001) %MON advcfl_uvel_max              =   4.7613162743509E-04
(PID.TID 0000.0001) %MON advcfl_vvel_max              =   4.9248924599363E-04
(PID.TID 0000.0001) %MON advcfl_wvel_max              =   8.5378403841250E-04
(PID.TID 0000.0001) %MON advcfl_W_hf_max              =   8.5378403841250E-04
(PID.TID 0000.0001) %MON pe_b_mean                    =  -6.8275573606391E-01
(PID.TID 0000.0001) %MON ke_max                       =   7.2320402680987E-06
(PID.TID 0000.0001) %MON ke_mean                      =   1.9690984312732E-08
(PID.TID 0000.0001) %MON ke_vol                       =   4.6182906981505E+12
(PID.TID 0000.0001) // =======================================================
(PID.TID 0000.0001) // End MONITOR dynamic field statistics
(PID.TID 0000.0001) // =======================================================
(PID.TID 0000.0001) // =======================================================
(PID.TID 0000.0001) // Begin OBCS MONITOR field statistics
(PID.TID 0000.0001) // =======================================================
(PID.TID 0000.0001) %MON obc_N_vVel_max               =  -7.1975150331993E-08
(PID.TID 0000.0001) %MON obc_N_vVel_min               =  -7.1975150331994E-08
(PID.TID 0000.0001) %MON obc_N_vVel_mean              =  -7.1975150331993E-08
(PID.TID 0000.0001) %MON obc_N_vVel_sd                =  -8.2830395048206E-29
(PID.TID 0000.0001) %MON obc_N_vVel_Int               =  -4.7503599219116E+00
(PID.TID 0000.0001) // =======================================================
(PID.TID 0000.0001) // End OBCS MONITOR field statistics
(PID.TID 0000.0001) // =======================================================
 cg2d: Sum(rhs),rhsMax =   3.01176147493321E+00  4.53050347796262E+02
(PID.TID 0000.0001)      cg2d_init_res =   1.42464939363137E-06
(PID.TID 0000.0001)      cg2d_iters(min,last) =      -1      69
(PID.TID 0000.0001)      cg2d_last_res =   9.74524857990835E-12
(PID.TID 0000.0001) // =======================================================
(PID.TID 0000.0001) // Begin MONITOR dynamic field statistics
(PID.TID 0000.0001) // =======================================================
(PID.TID 0000.0001) %MON time_tsnumber                =                   482
(PID.TID 0000.0001) %MON time_secondsf                =   4.8200000000000E+04
(PID.TID 0000.0001) %MON dynstat_eta_max              =   5.7968139861541E+00
(PID.TID 0000.0001) %MON dynstat_eta_min              =  -1.4176176954562E+01
(PID.TID 0000.0001) %MON dynstat_eta_mean             =  -2.5268140438849E+00
(PID.TID 0000.0001) %MON dynstat_eta_sd               =   4.9418938169137E+00
(PID.TID 0000.0001) %MON dynstat_eta_del2             =   1.9058093054520E-01
(PID.TID 0000.0001) %MON dynstat_uvel_max             =   2.0629152453608E-03
(PID.TID 0000.0001) %MON dynstat_uvel_min             =  -4.7773675468843E-03
(PID.TID 0000.0001) %MON dynstat_uvel_mean            =  -1.9876051280928E-09
(PID.TID 0000.0001) %MON dynstat_uvel_sd              =   1.6505025495223E-04
(PID.TID 0000.0001) %MON dynstat_uvel_del2            =   2.9883080012152E-07
(PID.TID 0000.0001) %MON dynstat_vvel_max             =   4.9379190782397E-03
(PID.TID 0000.0001) %MON dynstat_vvel_min             =  -1.9892236314254E-03
(PID.TID 0000.0001) %MON dynstat_vvel_mean            =  -5.8816961856475E-08
(PID.TID 0000.0001) %MON dynstat_vvel_sd              =   1.1299066881556E-04
(PID.TID 0000.0001) %MON dynstat_vvel_del2            =   3.0391035491691E-07
(PID.TID 0000.0001) %MON dynstat_wvel_max             =   1.4845813160393E-04
(PID.TID 0000.0001) %MON dynstat_wvel_min             =  -1.7142155463848E-04
(PID.TID 0000.0001) %MON dynstat_wvel_mean            =   1.5446957515024E-10
(PID.TID 0000.0001) %MON dynstat_wvel_sd              =   1.1947265537926E-05
(PID.TID 0000.0001) %MON dynstat_wvel_del2            =   5.7866887000476E-08
(PID.TID 0000.0001) %MON dynstat_theta_max            =   1.2000000000000E+00
(PID.TID 0000.0001) %MON dynstat_theta_min            =  -1.0000000000000E+00
(PID.TID 0000.0001) %MON dynstat_theta_mean           =   5.6540405695084E-01
(PID.TID 0000.0001) %MON dynstat_theta_sd             =   8.4904620511062E-01
(PID.TID 0000.0001) %MON dynstat_theta_del2           =   8.8099826536134E-07
(PID.TID 0000.0001) %MON dynstat_salt_max             =   3.4700000000000E+01
(PID.TID 0000.0001) %MON dynstat_salt_min             =   3.4000000000000E+01
(PID.TID 0000.0001) %MON dynstat_salt_mean            =   3.4498075181899E+01
(PID.TID 0000.0001) %MON dynstat_salt_sd              =   2.7015172341957E-01
(PID.TID 0000.0001) %MON dynstat_salt_del2            =   3.2188927530236E-07
(PID.TID 0000.0001) %MON advcfl_uvel_max              =   4.7773675468843E-04
(PID.TID 0000.0001) %MON advcfl_vvel_max              =   4.9379190782397E-04
(PID.TID 0000.0001) %MON advcfl_wvel_max              =   8.5710777319239E-04
(PID.TID 0000.0001) %MON advcfl_W_hf_max              =   8.5710777319239E-04
(PID.TID 0000.0001) %MON pe_b_mean                    =  -6.8275513685198E-01
(PID.TID 0000.0001) %MON ke_max                       =   7.2780121809875E-06
(PID.TID 0000.0001) %MON ke_mean                      =   1.9747988369358E-08
(PID.TID 0000.0001) %MON ke_vol                       =   4.6182907113623E+12
(PID.TID 0000.0001) // =======================================================
(PID.TID 0000.0001) // End MONITOR dynamic field statistics
(PID.TID 0000.0001) // =======================================================
(PID.TID 0000.0001) // =======================================================
(PID.TID 0000.0001) // Begin OBCS MONITOR field statistics
(PID.TID 0000.0001) // =======================================================
(PID.TID 0000.0001) %MON obc_N_vVel_max               =  -7.0689480843058E-08
(PID.TID 0000.0001) %MON obc_N_vVel_min               =  -7.0689480843060E-08
(PID.TID 0000.0001) %MON obc_N_vVel_mean              =  -7.0689480843058E-08
(PID.TID 0000.0001) %MON obc_N_vVel_sd                =   1.9700750375779E-14
(PID.TID 0000.0001) %MON obc_N_vVel_Int               =  -4.6655057356418E+00
(PID.TID 0000.0001) // =======================================================
(PID.TID 0000.0001) // End OBCS MONITOR field statistics
(PID.TID 0000.0001) // =======================================================
 cg2d: Sum(rhs),rhsMax =   3.01175888493581E+00  4.53050338274964E+02
(PID.TID 0000.0001)      cg2d_init_res =   1.42207605133281E-06
(PID.TID 0000.0001)      cg2d_iters(min,last) =      -1      69
(PID.TID 0000.0001)      cg2d_last_res =   9.76179425843314E-12
(PID.TID 0000.0001) // =======================================================
(PID.TID 0000.0001) // Begin MONITOR dynamic field statistics
(PID.TID 0000.0001) // =======================================================
(PID.TID 0000.0001) %MON time_tsnumber                =                   483
(PID.TID 0000.0001) %MON time_secondsf                =   4.8300000000000E+04
(PID.TID 0000.0001) %MON dynstat_eta_max              =   5.7968167569693E+00
(PID.TID 0000.0001) %MON dynstat_eta_min              =  -1.4176171055026E+01
(PID.TID 0000.0001) %MON dynstat_eta_mean             =  -2.5268118178200E+00
(PID.TID 0000.0001) %MON dynstat_eta_sd               =   4.9418931143190E+00
(PID.TID 0000.0001) %MON dynstat_eta_del2             =   1.9058093382311E-01
(PID.TID 0000.0001) %MON dynstat_uvel_max             =   2.0661117631064E-03
(PID.TID 0000.0001) %MON dynstat_uvel_min             =  -4.7934551823934E-03
(PID.TID 0000.0001) %MON dynstat_uvel_mean            =  -1.9877987708580E-09
(PID.TID 0000.0001) %MON dynstat_uvel_sd              =   1.6540595088930E-04
(PID.TID 0000.0001) %MON dynstat_uvel_del2            =   2.9917227263422E-07
(PID.TID 0000.0001) %MON dynstat_vvel_max             =   4.9509565417507E-03
(PID.TID 0000.0001) %MON dynstat_vvel_min             =  -1.9881805233615E-03
(PID.TID 0000.0001) %MON dynstat_vvel_mean            =  -5.7578258209882E-08
(PID.TID 0000.0001) %MON dynstat_vvel_sd              =   1.1302157345921E-04
(PID.TID 0000.0001) %MON dynstat_vvel_del2            =   3.0399609596097E-07
(PID.TID 0000.0001) %MON dynstat_wvel_max             =   1.4919847371995E-04
(PID.TID 0000.0001) %MON dynstat_wvel_min             =  -1.7208721031500E-04
(PID.TID 0000.0001) %MON dynstat_wvel_mean            =   1.5391139926604E-10
(PID.TID 0000.0001) %MON dynstat_wvel_sd              =   1.1894894030355E-05
(PID.TID 0000.0001) %MON dynstat_wvel_del2            =   5.7503692682621E-08
(PID.TID 0000.0001) %MON dynstat_theta_max            =   1.2000000000000E+00
(PID.TID 0000.0001) %MON dynstat_theta_min            =  -1.0000000000000E+00
(PID.TID 0000.0001) %MON dynstat_theta_mean           =   5.6540381878069E-01
(PID.TID 0000.0001) %MON dynstat_theta_sd             =   8.4904613838120E-01
(PID.TID 0000.0001) %MON dynstat_theta_del2           =   8.8174997532031E-07
(PID.TID 0000.0001) %MON dynstat_salt_max             =   3.4700000000000E+01
(PID.TID 0000.0001) %MON dynstat_salt_min             =   3.4000000000000E+01
(PID.TID 0000.0001) %MON dynstat_salt_mean            =   3.4498075087149E+01
(PID.TID 0000.0001) %MON dynstat_salt_sd              =   2.7015170172177E-01
(PID.TID 0000.0001) %MON dynstat_salt_del2            =   3.2231772292409E-07
(PID.TID 0000.0001) %MON advcfl_uvel_max              =   4.7934551823934E-04
(PID.TID 0000.0001) %MON advcfl_vvel_max              =   4.9509565417507E-04
(PID.TID 0000.0001) %MON advcfl_wvel_max              =   8.6043605157502E-04
(PID.TID 0000.0001) %MON advcfl_W_hf_max              =   8.6043605157502E-04
(PID.TID 0000.0001) %MON pe_b_mean                    =  -6.8275453714985E-01
(PID.TID 0000.0001) %MON ke_max                       =   7.3242451563400E-06
(PID.TID 0000.0001) %MON ke_mean                      =   1.9809146801889E-08
(PID.TID 0000.0001) %MON ke_vol                       =   4.6182907245793E+12
(PID.TID 0000.0001) // =======================================================
(PID.TID 0000.0001) // End MONITOR dynamic field statistics
(PID.TID 0000.0001) // =======================================================
(PID.TID 0000.0001) // =======================================================
(PID.TID 0000.0001) // Begin OBCS MONITOR field statistics
(PID.TID 0000.0001) // =======================================================
(PID.TID 0000.0001) %MON obc_N_vVel_max               =  -6.9478611701930E-08
(PID.TID 0000.0001) %MON obc_N_vVel_min               =  -6.9478611701930E-08
(PID.TID 0000.0001) %MON obc_N_vVel_mean              =  -6.9478611701930E-08
(PID.TID 0000.0001) %MON obc_N_vVel_sd                =  -7.8097229616880E-29
(PID.TID 0000.0001) %MON obc_N_vVel_Int               =  -4.5855883723274E+00
(PID.TID 0000.0001) // =======================================================
(PID.TID 0000.0001) // End OBCS MONITOR field statistics
(PID.TID 0000.0001) // =======================================================
 cg2d: Sum(rhs),rhsMax =   3.01175629361634E+00  4.53050328755435E+02
(PID.TID 0000.0001)      cg2d_init_res =   1.41994032193690E-06
(PID.TID 0000.0001)      cg2d_iters(min,last) =      -1      69
(PID.TID 0000.0001)      cg2d_last_res =   9.78094561581593E-12
(PID.TID 0000.0001) // =======================================================
(PID.TID 0000.0001) // Begin MONITOR dynamic field statistics
(PID.TID 0000.0001) // =======================================================
(PID.TID 0000.0001) %MON time_tsnumber                =                   484
(PID.TID 0000.0001) %MON time_secondsf                =   4.8400000000000E+04
(PID.TID 0000.0001) %MON dynstat_eta_max              =   5.7968195249391E+00
(PID.TID 0000.0001) %MON dynstat_eta_min              =  -1.4176165158384E+01
(PID.TID 0000.0001) %MON dynstat_eta_mean             =  -2.5268095906558E+00
(PID.TID 0000.0001) %MON dynstat_eta_sd               =   4.9418924114855E+00
(PID.TID 0000.0001) %MON dynstat_eta_del2             =   1.9058093711520E-01
(PID.TID 0000.0001) %MON dynstat_uvel_max             =   2.0693147524593E-03
(PID.TID 0000.0001) %MON dynstat_uvel_min             =  -4.8095793188017E-03
(PID.TID 0000.0001) %MON dynstat_uvel_mean            =  -1.9855779282085E-09
(PID.TID 0000.0001) %MON dynstat_uvel_sd              =   1.6576053493385E-04
(PID.TID 0000.0001) %MON dynstat_uvel_del2            =   2.9951645729375E-07
(PID.TID 0000.0001) %MON dynstat_vvel_max             =   4.9640049397335E-03
(PID.TID 0000.0001) %MON dynstat_vvel_min             =  -1.9870944952087E-03
(PID.TID 0000.0001) %MON dynstat_vvel_mean            =  -5.6494766455787E-08
(PID.TID 0000.0001) %MON dynstat_vvel_sd              =   1.1309035917488E-04
(PID.TID 0000.0001) %MON dynstat_vvel_del2            =   3.0412773919105E-07
(PID.TID 0000.0001) %MON dynstat_wvel_max             =   1.4994051766278E-04
(PID.TID 0000.0001) %MON dynstat_wvel_min             =  -1.7275377128513E-04
(PID.TID 0000.0001) %MON dynstat_wvel_mean            =   1.5305637327760E-10
(PID.TID 0000.0001) %MON dynstat_wvel_sd              =   1.1875384955761E-05
(PID.TID 0000.0001) %MON dynstat_wvel_del2            =   5.7191539814839E-08
(PID.TID 0000.0001) %MON dynstat_theta_max            =   1.2000000000000E+00
(PID.TID 0000.0001) %MON dynstat_theta_min            =  -1.0000000000000E+00
(PID.TID 0000.0001) %MON dynstat_theta_mean           =   5.6540358042505E-01
(PID.TID 0000.0001) %MON dynstat_theta_sd             =   8.4904607146701E-01
(PID.TID 0000.0001) %MON dynstat_theta_del2           =   8.8238165211362E-07
(PID.TID 0000.0001) %MON dynstat_salt_max             =   3.4700000000000E+01
(PID.TID 0000.0001) %MON dynstat_salt_min             =   3.4000000000000E+01
(PID.TID 0000.0001) %MON dynstat_salt_mean            =   3.4498074992318E+01
(PID.TID 0000.0001) %MON dynstat_salt_sd              =   2.7015167995215E-01
(PID.TID 0000.0001) %MON dynstat_salt_del2            =   3.2271326487030E-07
(PID.TID 0000.0001) %MON advcfl_uvel_max              =   4.8095793188017E-04
(PID.TID 0000.0001) %MON advcfl_vvel_max              =   4.9640049397335E-04
(PID.TID 0000.0001) %MON advcfl_wvel_max              =   8.6376885642565E-04
(PID.TID 0000.0001) %MON advcfl_W_hf_max              =   8.6376885642565E-04
(PID.TID 0000.0001) %MON pe_b_mean                    =  -6.8275393692274E-01
(PID.TID 0000.0001) %MON ke_max                       =   7.3707407424519E-06
(PID.TID 0000.0001) %MON ke_mean                      =   1.9874532620830E-08
(PID.TID 0000.0001) %MON ke_vol                       =   4.6182907378021E+12
(PID.TID 0000.0001) // =======================================================
(PID.TID 0000.0001) // End MONITOR dynamic field statistics
(PID.TID 0000.0001) // =======================================================
(PID.TID 0000.0001) // =======================================================
(PID.TID 0000.0001) // Begin OBCS MONITOR field statistics
(PID.TID 0000.0001) // =======================================================
(PID.TID 0000.0001) %MON obc_N_vVel_max               =  -6.8383260032534E-08
(PID.TID 0000.0001) %MON obc_N_vVel_min               =  -6.8383260032535E-08
(PID.TID 0000.0001) %MON obc_N_vVel_mean              =  -6.8383260032534E-08
(PID.TID 0000.0001) %MON obc_N_vVel_sd                =   7.0496976551426E-15
(PID.TID 0000.0001) %MON obc_N_vVel_Int               =  -4.5132951621473E+00
(PID.TID 0000.0001) // =======================================================
(PID.TID 0000.0001) // End OBCS MONITOR field statistics
(PID.TID 0000.0001) // =======================================================
 cg2d: Sum(rhs),rhsMax =   3.01175370077699E+00  4.53050319237298E+02
(PID.TID 0000.0001)      cg2d_init_res =   1.41824889034189E-06
(PID.TID 0000.0001)      cg2d_iters(min,last) =      -1      69
(PID.TID 0000.0001)      cg2d_last_res =   9.79901718949267E-12
(PID.TID 0000.0001) // =======================================================
(PID.TID 0000.0001) // Begin MONITOR dynamic field statistics
(PID.TID 0000.0001) // =======================================================
(PID.TID 0000.0001) %MON time_tsnumber                =                   485
(PID.TID 0000.0001) %MON time_secondsf                =   4.8500000000000E+04
(PID.TID 0000.0001) %MON dynstat_eta_max              =   5.7968222902380E+00
(PID.TID 0000.0001) %MON dynstat_eta_min              =  -1.4176159264325E+01
(PID.TID 0000.0001) %MON dynstat_eta_mean             =  -2.5268073622243E+00
(PID.TID 0000.0001) %MON dynstat_eta_sd               =   4.9418917083272E+00
(PID.TID 0000.0001) %MON dynstat_eta_del2             =   1.9058094042128E-01
(PID.TID 0000.0001) %MON dynstat_uvel_max             =   2.0725242757766E-03
(PID.TID 0000.0001) %MON dynstat_uvel_min             =  -4.8257400942493E-03
(PID.TID 0000.0001) %MON dynstat_uvel_mean            =  -1.9811969040406E-09
(PID.TID 0000.0001) %MON dynstat_uvel_sd              =   1.6611400262455E-04
(PID.TID 0000.0001) %MON dynstat_uvel_del2            =   2.9986337270076E-07
(PID.TID 0000.0001) %MON dynstat_vvel_max             =   4.9770643625997E-03
(PID.TID 0000.0001) %MON dynstat_vvel_min             =  -1.9859656176733E-03
(PID.TID 0000.0001) %MON dynstat_vvel_mean            =  -5.5602036789275E-08
(PID.TID 0000.0001) %MON dynstat_vvel_sd              =   1.1319662778382E-04
(PID.TID 0000.0001) %MON dynstat_vvel_del2            =   3.0430744718269E-07
(PID.TID 0000.0001) %MON dynstat_wvel_max             =   1.5068426438011E-04
(PID.TID 0000.0001) %MON dynstat_wvel_min             =  -1.7342123418235E-04
(PID.TID 0000.0001) %MON dynstat_wvel_mean            =   1.5194203711231E-10
(PID.TID 0000.0001) %MON dynstat_wvel_sd              =   1.1889618489677E-05
(PID.TID 0000.0001) %MON dynstat_wvel_del2            =   5.6937510010434E-08
(PID.TID 0000.0001) %MON dynstat_theta_max            =   1.2000000000000E+00
(PID.TID 0000.0001) %MON dynstat_theta_min            =  -1.0000000000000E+00
(PID.TID 0000.0001) %MON dynstat_theta_mean           =   5.6540334187783E-01
(PID.TID 0000.0001) %MON dynstat_theta_sd             =   8.4904600436129E-01
(PID.TID 0000.0001) %MON dynstat_theta_del2           =   8.8288378319356E-07
(PID.TID 0000.0001) %MON dynstat_salt_max             =   3.4700000000000E+01
(PID.TID 0000.0001) %MON dynstat_salt_min             =   3.4000000000000E+01
(PID.TID 0000.0001) %MON dynstat_salt_mean            =   3.4498074897406E+01
(PID.TID 0000.0001) %MON dynstat_salt_sd              =   2.7015165810862E-01
(PID.TID 0000.0001) %MON dynstat_salt_del2            =   3.2307331272527E-07
(PID.TID 0000.0001) %MON advcfl_uvel_max              =   4.8257400942493E-04
(PID.TID 0000.0001) %MON advcfl_vvel_max              =   4.9770643625997E-04
(PID.TID 0000.0001) %MON advcfl_wvel_max              =   8.6710617091175E-04
(PID.TID 0000.0001) %MON advcfl_W_hf_max              =   8.6710617091175E-04
(PID.TID 0000.0001) %MON pe_b_mean                    =  -6.8275333612832E-01
(PID.TID 0000.0001) %MON ke_max                       =   7.4175004968584E-06
(PID.TID 0000.0001) %MON ke_mean                      =   1.9944106685757E-08
(PID.TID 0000.0001) %MON ke_vol                       =   4.6182907510315E+12
(PID.TID 0000.0001) // =======================================================
(PID.TID 0000.0001) // End MONITOR dynamic field statistics
(PID.TID 0000.0001) // =======================================================
(PID.TID 0000.0001) // =======================================================
(PID.TID 0000.0001) // Begin OBCS MONITOR field statistics
(PID.TID 0000.0001) // =======================================================
(PID.TID 0000.0001) %MON obc_N_vVel_max               =  -6.7439455625071E-08
(PID.TID 0000.0001) %MON obc_N_vVel_min               =  -6.7439455625072E-08
(PID.TID 0000.0001) %MON obc_N_vVel_mean              =  -6.7439455625072E-08
(PID.TID 0000.0001) %MON obc_N_vVel_sd                =  -9.9396474057847E-29
(PID.TID 0000.0001) %MON obc_N_vVel_Int               =  -4.4510040712547E+00
(PID.TID 0000.0001) // =======================================================
(PID.TID 0000.0001) // End OBCS MONITOR field statistics
(PID.TID 0000.0001) // =======================================================
 cg2d: Sum(rhs),rhsMax =   3.01175110618011E+00  4.53050309720468E+02
(PID.TID 0000.0001)      cg2d_init_res =   1.41701416814048E-06
(PID.TID 0000.0001)      cg2d_iters(min,last) =      -1      69
(PID.TID 0000.0001)      cg2d_last_res =   9.81380014170754E-12
(PID.TID 0000.0001) // =======================================================
(PID.TID 0000.0001) // Begin MONITOR dynamic field statistics
(PID.TID 0000.0001) // =======================================================
(PID.TID 0000.0001) %MON time_tsnumber                =                   486
(PID.TID 0000.0001) %MON time_secondsf                =   4.8600000000000E+04
(PID.TID 0000.0001) %MON dynstat_eta_max              =   5.7968250531006E+00
(PID.TID 0000.0001) %MON dynstat_eta_min              =  -1.4176153372483E+01
(PID.TID 0000.0001) %MON dynstat_eta_mean             =  -2.5268051323257E+00
(PID.TID 0000.0001) %MON dynstat_eta_sd               =   4.9418910047550E+00
(PID.TID 0000.0001) %MON dynstat_eta_del2             =   1.9058094374138E-01
(PID.TID 0000.0001) %MON dynstat_uvel_max             =   2.0757403945133E-03
(PID.TID 0000.0001) %MON dynstat_uvel_min             =  -4.8419376474023E-03
(PID.TID 0000.0001) %MON dynstat_uvel_mean            =  -1.9749579994027E-09
(PID.TID 0000.0001) %MON dynstat_uvel_sd              =   1.6646636079170E-04
(PID.TID 0000.0001) %MON dynstat_uvel_del2            =   3.0021305122482E-07
(PID.TID 0000.0001) %MON dynstat_vvel_max             =   4.9901349020940E-03
(PID.TID 0000.0001) %MON dynstat_vvel_min             =  -1.9847939594566E-03
(PID.TID 0000.0001) %MON dynstat_vvel_mean            =  -5.4928505613418E-08
(PID.TID 0000.0001) %MON dynstat_vvel_sd              =   1.1333892373857E-04
(PID.TID 0000.0001) %MON dynstat_vvel_del2            =   3.0453609311488E-07
(PID.TID 0000.0001) %MON dynstat_wvel_max             =   1.5142971477082E-04
(PID.TID 0000.0001) %MON dynstat_wvel_min             =  -1.7408959578315E-04
(PID.TID 0000.0001) %MON dynstat_wvel_mean            =   1.5061408376535E-10
(PID.TID 0000.0001) %MON dynstat_wvel_sd              =   1.1937178151003E-05
(PID.TID 0000.0001) %MON dynstat_wvel_del2            =   5.6747313690766E-08
(PID.TID 0000.0001) %MON dynstat_theta_max            =   1.2000000000000E+00
(PID.TID 0000.0001) %MON dynstat_theta_min            =  -1.0000000000000E+00
(PID.TID 0000.0001) %MON dynstat_theta_mean           =   5.6540310313268E-01
(PID.TID 0000.0001) %MON dynstat_theta_sd             =   8.4904593707054E-01
(PID.TID 0000.0001) %MON dynstat_theta_del2           =   8.8325051766688E-07
(PID.TID 0000.0001) %MON dynstat_salt_max             =   3.4700000000000E+01
(PID.TID 0000.0001) %MON dynstat_salt_min             =   3.4000000000000E+01
(PID.TID 0000.0001) %MON dynstat_salt_mean            =   3.4498074802409E+01
(PID.TID 0000.0001) %MON dynstat_salt_sd              =   2.7015163619309E-01
(PID.TID 0000.0001) %MON dynstat_salt_del2            =   3.2339632342147E-07
(PID.TID 0000.0001) %MON advcfl_uvel_max              =   4.8419376474023E-04
(PID.TID 0000.0001) %MON advcfl_vvel_max              =   4.9901349020940E-04
(PID.TID 0000.0001) %MON advcfl_wvel_max              =   8.7044797891576E-04
(PID.TID 0000.0001) %MON advcfl_W_hf_max              =   8.7044797891576E-04
(PID.TID 0000.0001) %MON pe_b_mean                    =  -6.8275273471928E-01
(PID.TID 0000.0001) %MON ke_max                       =   7.4645259876313E-06
(PID.TID 0000.0001) %MON ke_mean                      =   2.0017715935476E-08
(PID.TID 0000.0001) %MON ke_vol                       =   4.6182907642684E+12
(PID.TID 0000.0001) // =======================================================
(PID.TID 0000.0001) // End MONITOR dynamic field statistics
(PID.TID 0000.0001) // =======================================================
(PID.TID 0000.0001) // =======================================================
(PID.TID 0000.0001) // Begin OBCS MONITOR field statistics
(PID.TID 0000.0001) // =======================================================
(PID.TID 0000.0001) %MON obc_N_vVel_max               =  -6.6677491624996E-08
(PID.TID 0000.0001) %MON obc_N_vVel_min               =  -6.6677491624997E-08
(PID.TID 0000.0001) %MON obc_N_vVel_mean              =  -6.6677491624997E-08
(PID.TID 0000.0001) %MON obc_N_vVel_sd                =   4.5288390936029E-15
(PID.TID 0000.0001) %MON obc_N_vVel_Int               =  -4.4007144472498E+00
(PID.TID 0000.0001) // =======================================================
(PID.TID 0000.0001) // End OBCS MONITOR field statistics
(PID.TID 0000.0001) // =======================================================
 cg2d: Sum(rhs),rhsMax =   3.01174850955307E+00  4.53050300205113E+02
(PID.TID 0000.0001)      cg2d_init_res =   1.41621640871640E-06
(PID.TID 0000.0001)      cg2d_iters(min,last) =      -1      69
(PID.TID 0000.0001)      cg2d_last_res =   9.82536656503752E-12
(PID.TID 0000.0001) // =======================================================
(PID.TID 0000.0001) // Begin MONITOR dynamic field statistics
(PID.TID 0000.0001) // =======================================================
(PID.TID 0000.0001) %MON time_tsnumber                =                   487
(PID.TID 0000.0001) %MON time_secondsf                =   4.8700000000000E+04
(PID.TID 0000.0001) %MON dynstat_eta_max              =   5.7968278138047E+00
(PID.TID 0000.0001) %MON dynstat_eta_min              =  -1.4176147482428E+01
(PID.TID 0000.0001) %MON dynstat_eta_mean             =  -2.5268029007321E+00
(PID.TID 0000.0001) %MON dynstat_eta_sd               =   4.9418903006769E+00
(PID.TID 0000.0001) %MON dynstat_eta_del2             =   1.9058094707549E-01
(PID.TID 0000.0001) %MON dynstat_uvel_max             =   2.0789631695628E-03
(PID.TID 0000.0001) %MON dynstat_uvel_min             =  -4.8581721174603E-03
(PID.TID 0000.0001) %MON dynstat_uvel_mean            =  -1.9672181257006E-09
(PID.TID 0000.0001) %MON dynstat_uvel_sd              =   1.6681762705716E-04
(PID.TID 0000.0001) %MON dynstat_uvel_del2            =   3.0056553846354E-07
(PID.TID 0000.0001) %MON dynstat_vvel_max             =   5.0032166516594E-03
(PID.TID 0000.0001) %MON dynstat_vvel_min             =  -1.9835795866348E-03
(PID.TID 0000.0001) %MON dynstat_vvel_mean            =  -5.4494685929476E-08
(PID.TID 0000.0001) %MON dynstat_vvel_sd              =   1.1351475924356E-04
(PID.TID 0000.0001) %MON dynstat_vvel_del2            =   3.0481328333956E-07
(PID.TID 0000.0001) %MON dynstat_wvel_max             =   1.5217686969087E-04
(PID.TID 0000.0001) %MON dynstat_wvel_min             =  -1.7475885294751E-04
(PID.TID 0000.0001) %MON dynstat_wvel_mean            =   1.4912540358652E-10
(PID.TID 0000.0001) %MON dynstat_wvel_sd              =   1.2016348990851E-05
(PID.TID 0000.0001) %MON dynstat_wvel_del2            =   5.6625297853109E-08
(PID.TID 0000.0001) %MON dynstat_theta_max            =   1.2000000000000E+00
(PID.TID 0000.0001) %MON dynstat_theta_min            =  -1.0000000000000E+00
(PID.TID 0000.0001) %MON dynstat_theta_mean           =   5.6540286418267E-01
(PID.TID 0000.0001) %MON dynstat_theta_sd             =   8.4904586957432E-01
(PID.TID 0000.0001) %MON dynstat_theta_del2           =   8.8347995352335E-07
(PID.TID 0000.0001) %MON dynstat_salt_max             =   3.4700000000000E+01
(PID.TID 0000.0001) %MON dynstat_salt_min             =   3.4000000000000E+01
(PID.TID 0000.0001) %MON dynstat_salt_mean            =   3.4498074707327E+01
(PID.TID 0000.0001) %MON dynstat_salt_sd              =   2.7015161419934E-01
(PID.TID 0000.0001) %MON dynstat_salt_del2            =   3.2368180984428E-07
(PID.TID 0000.0001) %MON advcfl_uvel_max              =   4.8581721174603E-04
(PID.TID 0000.0001) %MON advcfl_vvel_max              =   5.0032166516594E-04
(PID.TID 0000.0001) %MON advcfl_wvel_max              =   8.7379426473757E-04
(PID.TID 0000.0001) %MON advcfl_W_hf_max              =   8.7379426473757E-04
(PID.TID 0000.0001) %MON pe_b_mean                    =  -6.8275213264404E-01
(PID.TID 0000.0001) %MON ke_max                       =   7.5118187935761E-06
(PID.TID 0000.0001) %MON ke_mean                      =   2.0095095088134E-08
(PID.TID 0000.0001) %MON ke_vol                       =   4.6182907775140E+12
(PID.TID 0000.0001) // =======================================================
(PID.TID 0000.0001) // End MONITOR dynamic field statistics
(PID.TID 0000.0001) // =======================================================
(PID.TID 0000.0001) // =======================================================
(PID.TID 0000.0001) // Begin OBCS MONITOR field statistics
(PID.TID 0000.0001) // =======================================================
(PID.TID 0000.0001) %MON obc_N_vVel_max               =  -6.6121021940180E-08
(PID.TID 0000.0001) %MON obc_N_vVel_min               =  -6.6121021940181E-08
(PID.TID 0000.0001) %MON obc_N_vVel_mean              =  -6.6121021940181E-08
(PID.TID 0000.0001) %MON obc_N_vVel_sd                =   5.0242958677881E-15
(PID.TID 0000.0001) %MON obc_N_vVel_Int               =  -4.3639874480519E+00
(PID.TID 0000.0001) // =======================================================
(PID.TID 0000.0001) // End OBCS MONITOR field statistics
(PID.TID 0000.0001) // =======================================================
 cg2d: Sum(rhs),rhsMax =   3.01174591060180E+00  4.53050290691695E+02
(PID.TID 0000.0001)      cg2d_init_res =   1.41584681132096E-06
(PID.TID 0000.0001)      cg2d_iters(min,last) =      -1      69
(PID.TID 0000.0001)      cg2d_last_res =   9.83230642752161E-12
(PID.TID 0000.0001) // =======================================================
(PID.TID 0000.0001) // Begin MONITOR dynamic field statistics
(PID.TID 0000.0001) // =======================================================
(PID.TID 0000.0001) %MON time_tsnumber                =                   488
(PID.TID 0000.0001) %MON time_secondsf                =   4.8800000000000E+04
(PID.TID 0000.0001) %MON dynstat_eta_max              =   5.7968305726563E+00
(PID.TID 0000.0001) %MON dynstat_eta_min              =  -1.4176141593708E+01
(PID.TID 0000.0001) %MON dynstat_eta_mean             =  -2.5268006671994E+00
(PID.TID 0000.0001) %MON dynstat_eta_sd               =   4.9418895960008E+00
(PID.TID 0000.0001) %MON dynstat_eta_del2             =   1.9058095042358E-01
(PID.TID 0000.0001) %MON dynstat_uvel_max             =   2.0821926610637E-03
(PID.TID 0000.0001) %MON dynstat_uvel_min             =  -4.8744436439598E-03
(PID.TID 0000.0001) %MON dynstat_uvel_mean            =  -1.9583764116607E-09
(PID.TID 0000.0001) %MON dynstat_uvel_sd              =   1.6716782907767E-04
(PID.TID 0000.0001) %MON dynstat_uvel_del2            =   3.0092089191195E-07
(PID.TID 0000.0001) %MON dynstat_vvel_max             =   5.0163097065283E-03
(PID.TID 0000.0001) %MON dynstat_vvel_min             =  -1.9823225625473E-03
(PID.TID 0000.0001) %MON dynstat_vvel_mean            =  -5.4312606919462E-08
(PID.TID 0000.0001) %MON dynstat_vvel_sd              =   1.1372067514286E-04
(PID.TID 0000.0001) %MON dynstat_vvel_del2            =   3.0513738982672E-07
(PID.TID 0000.0001) %MON dynstat_wvel_max             =   1.5292573006374E-04
(PID.TID 0000.0001) %MON dynstat_wvel_min             =  -1.7542900245586E-04
(PID.TID 0000.0001) %MON dynstat_wvel_mean            =   1.4753369280030E-10
(PID.TID 0000.0001) %MON dynstat_wvel_sd              =   1.2124195638035E-05
(PID.TID 0000.0001) %MON dynstat_wvel_del2            =   5.6574422274625E-08
(PID.TID 0000.0001) %MON dynstat_theta_max            =   1.2000000000000E+00
(PID.TID 0000.0001) %MON dynstat_theta_min            =  -1.0000000000000E+00
(PID.TID 0000.0001) %MON dynstat_theta_mean           =   5.6540262502064E-01
(PID.TID 0000.0001) %MON dynstat_theta_sd             =   8.4904580184050E-01
(PID.TID 0000.0001) %MON dynstat_theta_del2           =   8.8357364811690E-07
(PID.TID 0000.0001) %MON dynstat_salt_max             =   3.4700000000000E+01
(PID.TID 0000.0001) %MON dynstat_salt_min             =   3.4000000000000E+01
(PID.TID 0000.0001) %MON dynstat_salt_mean            =   3.4498074612155E+01
(PID.TID 0000.0001) %MON dynstat_salt_sd              =   2.7015159211697E-01
(PID.TID 0000.0001) %MON dynstat_salt_del2            =   3.2393026747826E-07
(PID.TID 0000.0001) %MON advcfl_uvel_max              =   4.8744436439598E-04
(PID.TID 0000.0001) %MON advcfl_vvel_max              =   5.0163097065283E-04
(PID.TID 0000.0001) %MON advcfl_wvel_max              =   8.7714501227931E-04
(PID.TID 0000.0001) %MON advcfl_W_hf_max              =   8.7714501227931E-04
(PID.TID 0000.0001) %MON pe_b_mean                    =  -6.8275152984932E-01
(PID.TID 0000.0001) %MON ke_max                       =   7.5593805039648E-06
(PID.TID 0000.0001) %MON ke_mean                      =   2.0175871872684E-08
(PID.TID 0000.0001) %MON ke_vol                       =   4.6182907907697E+12
(PID.TID 0000.0001) // =======================================================
(PID.TID 0000.0001) // End MONITOR dynamic field statistics
(PID.TID 0000.0001) // =======================================================
(PID.TID 0000.0001) // =======================================================
(PID.TID 0000.0001) // Begin OBCS MONITOR field statistics
(PID.TID 0000.0001) // =======================================================
(PID.TID 0000.0001) %MON obc_N_vVel_max               =  -6.5786260892071E-08
(PID.TID 0000.0001) %MON obc_N_vVel_min               =  -6.5786260892072E-08
(PID.TID 0000.0001) %MON obc_N_vVel_mean              =  -6.5786260892072E-08
(PID.TID 0000.0001) %MON obc_N_vVel_sd                =  -2.2955852341931E-28
(PID.TID 0000.0001) %MON obc_N_vVel_Int               =  -4.3418932188768E+00
(PID.TID 0000.0001) // =======================================================
(PID.TID 0000.0001) // End OBCS MONITOR field statistics
(PID.TID 0000.0001) // =======================================================
 cg2d: Sum(rhs),rhsMax =   3.01174330901870E+00  4.53050281180800E+02
(PID.TID 0000.0001)      cg2d_init_res =   1.41589299557068E-06
(PID.TID 0000.0001)      cg2d_iters(min,last) =      -1      69
(PID.TID 0000.0001)      cg2d_last_res =   9.83315131317908E-12
(PID.TID 0000.0001) // =======================================================
(PID.TID 0000.0001) // Begin MONITOR dynamic field statistics
(PID.TID 0000.0001) // =======================================================
(PID.TID 0000.0001) %MON time_tsnumber                =                   489
(PID.TID 0000.0001) %MON time_secondsf                =   4.8900000000000E+04
(PID.TID 0000.0001) %MON dynstat_eta_max              =   5.7968333299745E+00
(PID.TID 0000.0001) %MON dynstat_eta_min              =  -1.4176135705856E+01
(PID.TID 0000.0001) %MON dynstat_eta_mean             =  -2.5267984314728E+00
(PID.TID 0000.0001) %MON dynstat_eta_sd               =   4.9418888906389E+00
(PID.TID 0000.0001) %MON dynstat_eta_del2             =   1.9058095378572E-01
(PID.TID 0000.0001) %MON dynstat_uvel_max             =   2.0854289285204E-03
(PID.TID 0000.0001) %MON dynstat_uvel_min             =  -4.8907523667445E-03
(PID.TID 0000.0001) %MON dynstat_uvel_mean            =  -1.9488265064695E-09
(PID.TID 0000.0001) %MON dynstat_uvel_sd              =   1.6751700359699E-04
(PID.TID 0000.0001) %MON dynstat_uvel_del2            =   3.0127917969279E-07
(PID.TID 0000.0001) %MON dynstat_vvel_max             =   5.0294141637288E-03
(PID.TID 0000.0001) %MON dynstat_vvel_min             =  -1.9810229474899E-03
(PID.TID 0000.0001) %MON dynstat_vvel_mean            =  -5.4385500053577E-08
(PID.TID 0000.0001) %MON dynstat_vvel_sd              =   1.1395233554330E-04
(PID.TID 0000.0001) %MON dynstat_vvel_del2            =   3.0550558029212E-07
(PID.TID 0000.0001) %MON dynstat_wvel_max             =   1.5367629688456E-04
(PID.TID 0000.0001) %MON dynstat_wvel_min             =  -1.7610004103789E-04
(PID.TID 0000.0001) %MON dynstat_wvel_mean            =   1.4589831574594E-10
(PID.TID 0000.0001) %MON dynstat_wvel_sd              =   1.2256707334858E-05
(PID.TID 0000.0001) %MON dynstat_wvel_del2            =   5.6596170814566E-08
(PID.TID 0000.0001) %MON dynstat_theta_max            =   1.2000000000000E+00
(PID.TID 0000.0001) %MON dynstat_theta_min            =  -1.0000000000000E+00
(PID.TID 0000.0001) %MON dynstat_theta_mean           =   5.6540238563888E-01
(PID.TID 0000.0001) %MON dynstat_theta_sd             =   8.4904573386485E-01
(PID.TID 0000.0001) %MON dynstat_theta_del2           =   8.8353692324275E-07
(PID.TID 0000.0001) %MON dynstat_salt_max             =   3.4700000000000E+01
(PID.TID 0000.0001) %MON dynstat_salt_min             =   3.4000000000000E+01
(PID.TID 0000.0001) %MON dynstat_salt_mean            =   3.4498074516893E+01
(PID.TID 0000.0001) %MON dynstat_salt_sd              =   2.7015156994467E-01
(PID.TID 0000.0001) %MON dynstat_salt_del2            =   3.2414321836171E-07
(PID.TID 0000.0001) %MON advcfl_uvel_max              =   4.8907523667445E-04
(PID.TID 0000.0001) %MON advcfl_vvel_max              =   5.0294141637288E-04
(PID.TID 0000.0001) %MON advcfl_wvel_max              =   8.8050020518944E-04
(PID.TID 0000.0001) %MON advcfl_W_hf_max              =   8.8050020518944E-04
(PID.TID 0000.0001) %MON pe_b_mean                    =  -6.8275092628128E-01
(PID.TID 0000.0001) %MON ke_max                       =   7.6072127183825E-06
(PID.TID 0000.0001) %MON ke_mean                      =   2.0259575734977E-08
(PID.TID 0000.0001) %MON ke_vol                       =   4.6182908040368E+12
(PID.TID 0000.0001) // =======================================================
(PID.TID 0000.0001) // End MONITOR dynamic field statistics
(PID.TID 0000.0001) // =======================================================
(PID.TID 0000.0001) // =======================================================
(PID.TID 0000.0001) // Begin OBCS MONITOR field statistics
(PID.TID 0000.0001) // =======================================================
(PID.TID 0000.0001) %MON obc_N_vVel_max               =  -6.5681508025762E-08
(PID.TID 0000.0001) %MON obc_N_vVel_min               =  -6.5681508025762E-08
(PID.TID 0000.0001) %MON obc_N_vVel_mean              =  -6.5681508025762E-08
(PID.TID 0000.0001) %MON obc_N_vVel_sd                =   1.1374233532693E-14
(PID.TID 0000.0001) %MON obc_N_vVel_Int               =  -4.3349795297003E+00
(PID.TID 0000.0001) // =======================================================
(PID.TID 0000.0001) // End OBCS MONITOR field statistics
(PID.TID 0000.0001) // =======================================================
 cg2d: Sum(rhs),rhsMax =   3.01174070449460E+00  4.53050271673206E+02
(PID.TID 0000.0001)      cg2d_init_res =   1.41634291130969E-06
(PID.TID 0000.0001)      cg2d_iters(min,last) =      -1      69
(PID.TID 0000.0001)      cg2d_last_res =   9.83285914388406E-12
(PID.TID 0000.0001) // =======================================================
(PID.TID 0000.0001) // Begin MONITOR dynamic field statistics
(PID.TID 0000.0001) // =======================================================
(PID.TID 0000.0001) %MON time_tsnumber                =                   490
(PID.TID 0000.0001) %MON time_secondsf                =   4.9000000000000E+04
(PID.TID 0000.0001) %MON dynstat_eta_max              =   5.7968360860921E+00
(PID.TID 0000.0001) %MON dynstat_eta_min              =  -1.4176129818437E+01
(PID.TID 0000.0001) %MON dynstat_eta_mean             =  -2.5267961932973E+00
(PID.TID 0000.0001) %MON dynstat_eta_sd               =   4.9418881845124E+00
(PID.TID 0000.0001) %MON dynstat_eta_del2             =   1.9058095716206E-01
(PID.TID 0000.0001) %MON dynstat_uvel_max             =   2.0886720307409E-03
(PID.TID 0000.0001) %MON dynstat_uvel_min             =  -4.9070984260435E-03
(PID.TID 0000.0001) %MON dynstat_uvel_mean            =  -1.9389522087539E-09
(PID.TID 0000.0001) %MON dynstat_uvel_sd              =   1.6786519530460E-04
(PID.TID 0000.0001) %MON dynstat_uvel_del2            =   3.0164047870422E-07
(PID.TID 0000.0001) %MON dynstat_vvel_max             =   5.0425301220176E-03
(PID.TID 0000.0001) %MON dynstat_vvel_min             =  -1.9796807990264E-03
(PID.TID 0000.0001) %MON dynstat_vvel_mean            =  -5.4707807199117E-08
(PID.TID 0000.0001) %MON dynstat_vvel_sd              =   1.1420465303387E-04
(PID.TID 0000.0001) %MON dynstat_vvel_del2            =   3.0591383712331E-07
(PID.TID 0000.0001) %MON dynstat_wvel_max             =   1.5442857123767E-04
(PID.TID 0000.0001) %MON dynstat_wvel_min             =  -1.7677196546418E-04
(PID.TID 0000.0001) %MON dynstat_wvel_mean            =   1.4427921620928E-10
(PID.TID 0000.0001) %MON dynstat_wvel_sd              =   1.2408989949882E-05
(PID.TID 0000.0001) %MON dynstat_wvel_del2            =   5.6690381054186E-08
(PID.TID 0000.0001) %MON dynstat_theta_max            =   1.2000000000000E+00
(PID.TID 0000.0001) %MON dynstat_theta_min            =  -1.0000000000000E+00
(PID.TID 0000.0001) %MON dynstat_theta_mean           =   5.6540214602936E-01
(PID.TID 0000.0001) %MON dynstat_theta_sd             =   8.4904566565758E-01
(PID.TID 0000.0001) %MON dynstat_theta_del2           =   8.8337922210356E-07
(PID.TID 0000.0001) %MON dynstat_salt_max             =   3.4700000000000E+01
(PID.TID 0000.0001) %MON dynstat_salt_min             =   3.4000000000000E+01
(PID.TID 0000.0001) %MON dynstat_salt_mean            =   3.4498074421538E+01
(PID.TID 0000.0001) %MON dynstat_salt_sd              =   2.7015154768581E-01
(PID.TID 0000.0001) %MON dynstat_salt_del2            =   3.2432334793178E-07
(PID.TID 0000.0001) %MON advcfl_uvel_max              =   4.9070984260435E-04
(PID.TID 0000.0001) %MON advcfl_vvel_max              =   5.0425301220176E-04
(PID.TID 0000.0001) %MON advcfl_wvel_max              =   8.8385982732091E-04
(PID.TID 0000.0001) %MON advcfl_W_hf_max              =   8.8385982732091E-04
(PID.TID 0000.0001) %MON pe_b_mean                    =  -6.8275032188787E-01
(PID.TID 0000.0001) %MON ke_max                       =   7.6553170472190E-06
(PID.TID 0000.0001) %MON ke_mean                      =   2.0345649871278E-08
(PID.TID 0000.0001) %MON ke_vol                       =   4.6182908173171E+12
(PID.TID 0000.0001) // =======================================================
(PID.TID 0000.0001) // End MONITOR dynamic field statistics
(PID.TID 0000.0001) // =======================================================
(PID.TID 0000.0001) // =======================================================
(PID.TID 0000.0001) // Begin OBCS MONITOR field statistics
(PID.TID 0000.0001) // =======================================================
(PID.TID 0000.0001) %MON obc_N_vVel_max               =  -6.5807088325731E-08
(PID.TID 0000.0001) %MON obc_N_vVel_min               =  -6.5807088325731E-08
(PID.TID 0000.0001) %MON obc_N_vVel_mean              =  -6.5807088325731E-08
(PID.TID 0000.0001) %MON obc_N_vVel_sd                =   1.3263332230789E-14
(PID.TID 0000.0001) %MON obc_N_vVel_Int               =  -4.3432678294983E+00
(PID.TID 0000.0001) // =======================================================
(PID.TID 0000.0001) // End OBCS MONITOR field statistics
(PID.TID 0000.0001) // =======================================================
 cg2d: Sum(rhs),rhsMax =   3.01173809673017E+00  4.53050262169769E+02
(PID.TID 0000.0001)      cg2d_init_res =   1.41718909480944E-06
(PID.TID 0000.0001)      cg2d_iters(min,last) =      -1      69
(PID.TID 0000.0001)      cg2d_last_res =   9.83972950099787E-12
(PID.TID 0000.0001) // =======================================================
(PID.TID 0000.0001) // Begin MONITOR dynamic field statistics
(PID.TID 0000.0001) // =======================================================
(PID.TID 0000.0001) %MON time_tsnumber                =                   491
(PID.TID 0000.0001) %MON time_secondsf                =   4.9100000000000E+04
(PID.TID 0000.0001) %MON dynstat_eta_max              =   5.7968388413164E+00
(PID.TID 0000.0001) %MON dynstat_eta_min              =  -1.4176123931037E+01
(PID.TID 0000.0001) %MON dynstat_eta_mean             =  -2.5267939524264E+00
(PID.TID 0000.0001) %MON dynstat_eta_sd               =   4.9418874775508E+00
(PID.TID 0000.0001) %MON dynstat_eta_del2             =   1.9058096055278E-01
(PID.TID 0000.0001) %MON dynstat_uvel_max             =   2.0919220258477E-03
(PID.TID 0000.0001) %MON dynstat_uvel_min             =  -4.9234819624377E-03
(PID.TID 0000.0001) %MON dynstat_uvel_mean            =  -1.9291402431357E-09
(PID.TID 0000.0001) %MON dynstat_uvel_sd              =   1.6821245553987E-04
(PID.TID 0000.0001) %MON dynstat_uvel_del2            =   3.0200487236020E-07
(PID.TID 0000.0001) %MON dynstat_vvel_max             =   5.0556576820540E-03
(PID.TID 0000.0001) %MON dynstat_vvel_min             =  -1.9782961720844E-03
(PID.TID 0000.0001) %MON dynstat_vvel_mean            =  -5.5265474088080E-08
(PID.TID 0000.0001) %MON dynstat_vvel_sd              =   1.1447194040461E-04
(PID.TID 0000.0001) %MON dynstat_vvel_del2            =   3.0635696911796E-07
(PID.TID 0000.0001) %MON dynstat_wvel_max             =   1.5518255206764E-04
(PID.TID 0000.0001) %MON dynstat_wvel_min             =  -1.7744477255716E-04
(PID.TID 0000.0001) %MON dynstat_wvel_mean            =   1.4273519350213E-10
(PID.TID 0000.0001) %MON dynstat_wvel_sd              =   1.2575483502549E-05
(PID.TID 0000.0001) %MON dynstat_wvel_del2            =   5.6855006050474E-08
(PID.TID 0000.0001) %MON dynstat_theta_max            =   1.2000000000000E+00
(PID.TID 0000.0001) %MON dynstat_theta_min            =  -1.0000000000000E+00
(PID.TID 0000.0001) %MON dynstat_theta_mean           =   5.6540190618374E-01
(PID.TID 0000.0001) %MON dynstat_theta_sd             =   8.4904559724024E-01
(PID.TID 0000.0001) %MON dynstat_theta_del2           =   8.8311408150034E-07
(PID.TID 0000.0001) %MON dynstat_salt_max             =   3.4700000000000E+01
(PID.TID 0000.0001) %MON dynstat_salt_min             =   3.4000000000000E+01
(PID.TID 0000.0001) %MON dynstat_salt_mean            =   3.4498074326086E+01
(PID.TID 0000.0001) %MON dynstat_salt_sd              =   2.7015152534736E-01
(PID.TID 0000.0001) %MON dynstat_salt_del2            =   3.2447443853675E-07
(PID.TID 0000.0001) %MON advcfl_uvel_max              =   4.9234819624377E-04
(PID.TID 0000.0001) %MON advcfl_vvel_max              =   5.0556576820540E-04
(PID.TID 0000.0001) %MON advcfl_wvel_max              =   8.8722386278581E-04
(PID.TID 0000.0001) %MON advcfl_W_hf_max              =   8.8722386278581E-04
(PID.TID 0000.0001) %MON pe_b_mean                    =  -6.8274971662043E-01
(PID.TID 0000.0001) %MON ke_max                       =   7.7036951114107E-06
(PID.TID 0000.0001) %MON ke_mean                      =   2.0433466362852E-08
(PID.TID 0000.0001) %MON ke_vol                       =   4.6182908306118E+12
(PID.TID 0000.0001) // =======================================================
(PID.TID 0000.0001) // End MONITOR dynamic field statistics
(PID.TID 0000.0001) // =======================================================
(PID.TID 0000.0001) // =======================================================
(PID.TID 0000.0001) // Begin OBCS MONITOR field statistics
(PID.TID 0000.0001) // =======================================================
(PID.TID 0000.0001) %MON obc_N_vVel_max               =  -6.6155465630754E-08
(PID.TID 0000.0001) %MON obc_N_vVel_min               =  -6.6155465630755E-08
(PID.TID 0000.0001) %MON obc_N_vVel_mean              =  -6.6155465630755E-08
(PID.TID 0000.0001) %MON obc_N_vVel_sd                =  -1.7591598186429E-28
(PID.TID 0000.0001) %MON obc_N_vVel_Int               =  -4.3662607316299E+00
(PID.TID 0000.0001) // =======================================================
(PID.TID 0000.0001) // End OBCS MONITOR field statistics
(PID.TID 0000.0001) // =======================================================
 cg2d: Sum(rhs),rhsMax =   3.01173548544681E+00  4.53050252671357E+02
(PID.TID 0000.0001)      cg2d_init_res =   1.41842080393836E-06
(PID.TID 0000.0001)      cg2d_iters(min,last) =      -1      69
(PID.TID 0000.0001)      cg2d_last_res =   9.85406625709905E-12
(PID.TID 0000.0001) // =======================================================
(PID.TID 0000.0001) // Begin MONITOR dynamic field statistics
(PID.TID 0000.0001) // =======================================================
(PID.TID 0000.0001) %MON time_tsnumber                =                   492
(PID.TID 0000.0001) %MON time_secondsf                =   4.9200000000000E+04
(PID.TID 0000.0001) %MON dynstat_eta_max              =   5.7968415959576E+00
(PID.TID 0000.0001) %MON dynstat_eta_min              =  -1.4176118043304E+01
(PID.TID 0000.0001) %MON dynstat_eta_mean             =  -2.5267917086314E+00
(PID.TID 0000.0001) %MON dynstat_eta_sd               =   4.9418867696944E+00
(PID.TID 0000.0001) %MON dynstat_eta_del2             =   1.9058096395798E-01
(PID.TID 0000.0001) %MON dynstat_uvel_max             =   2.0951789709596E-03
(PID.TID 0000.0001) %MON dynstat_uvel_min             =  -4.9399031167416E-03
(PID.TID 0000.0001) %MON dynstat_uvel_mean            =  -1.9197735297133E-09
(PID.TID 0000.0001) %MON dynstat_uvel_sd              =   1.6855884086888E-04
(PID.TID 0000.0001) %MON dynstat_uvel_del2            =   3.0237244804068E-07
(PID.TID 0000.0001) %MON dynstat_vvel_max             =   5.0687969457515E-03
(PID.TID 0000.0001) %MON dynstat_vvel_min             =  -1.9768691191153E-03
(PID.TID 0000.0001) %MON dynstat_vvel_mean            =  -5.6036525557987E-08
(PID.TID 0000.0001) %MON dynstat_vvel_sd              =   1.1474808400288E-04
(PID.TID 0000.0001) %MON dynstat_vvel_del2            =   3.0682862535883E-07
(PID.TID 0000.0001) %MON dynstat_wvel_max             =   1.5593824045532E-04
(PID.TID 0000.0001) %MON dynstat_wvel_min             =  -1.7811845913573E-04
(PID.TID 0000.0001) %MON dynstat_wvel_mean            =   1.4132189802108E-10
(PID.TID 0000.0001) %MON dynstat_wvel_sd              =   1.2750185602451E-05
(PID.TID 0000.0001) %MON dynstat_wvel_del2            =   5.7085842893022E-08
(PID.TID 0000.0001) %MON dynstat_theta_max            =   1.2000000000000E+00
(PID.TID 0000.0001) %MON dynstat_theta_min            =  -1.0000000000000E+00
(PID.TID 0000.0001) %MON dynstat_theta_mean           =   5.6540166609352E-01
(PID.TID 0000.0001) %MON dynstat_theta_sd             =   8.4904552863306E-01
(PID.TID 0000.0001) %MON dynstat_theta_del2           =   8.8275889740332E-07
(PID.TID 0000.0001) %MON dynstat_salt_max             =   3.4700000000000E+01
(PID.TID 0000.0001) %MON dynstat_salt_min             =   3.4000000000000E+01
(PID.TID 0000.0001) %MON dynstat_salt_mean            =   3.4498074230535E+01
(PID.TID 0000.0001) %MON dynstat_salt_sd              =   2.7015150293537E-01
(PID.TID 0000.0001) %MON dynstat_salt_del2            =   3.2460133877534E-07
(PID.TID 0000.0001) %MON advcfl_uvel_max              =   4.9399031167416E-04
(PID.TID 0000.0001) %MON advcfl_vvel_max              =   5.0687969457515E-04
(PID.TID 0000.0001) %MON advcfl_wvel_max              =   8.9059229567865E-04
(PID.TID 0000.0001) %MON advcfl_W_hf_max              =   8.9059229567865E-04
(PID.TID 0000.0001) %MON pe_b_mean                    =  -6.8274911043556E-01
(PID.TID 0000.0001) %MON ke_max                       =   7.7523485421836E-06
(PID.TID 0000.0001) %MON ke_mean                      =   2.0522344090243E-08
(PID.TID 0000.0001) %MON ke_vol                       =   4.6182908439226E+12
(PID.TID 0000.0001) // =======================================================
(PID.TID 0000.0001) // End MONITOR dynamic field statistics
(PID.TID 0000.0001) // =======================================================
(PID.TID 0000.0001) // =======================================================
(PID.TID 0000.0001) // Begin OBCS MONITOR field statistics
(PID.TID 0000.0001) // =======================================================
(PID.TID 0000.0001) %MON obc_N_vVel_max               =  -6.6711533512523E-08
(PID.TID 0000.0001) %MON obc_N_vVel_min               =  -6.6711533512526E-08
(PID.TID 0000.0001) %MON obc_N_vVel_mean              =  -6.6711533512523E-08
(PID.TID 0000.0001) %MON obc_N_vVel_sd                =   2.0810685643831E-14
(PID.TID 0000.0001) %MON obc_N_vVel_Int               =  -4.4029612118265E+00
(PID.TID 0000.0001) // =======================================================
(PID.TID 0000.0001) // End OBCS MONITOR field statistics
(PID.TID 0000.0001) // =======================================================
 cg2d: Sum(rhs),rhsMax =   3.01173287039407E+00  4.53050243178762E+02
(PID.TID 0000.0001)      cg2d_init_res =   1.42002007625968E-06
(PID.TID 0000.0001)      cg2d_iters(min,last) =      -1      69
(PID.TID 0000.0001)      cg2d_last_res =   9.86670184617234E-12
(PID.TID 0000.0001) // =======================================================
(PID.TID 0000.0001) // Begin MONITOR dynamic field statistics
(PID.TID 0000.0001) // =======================================================
(PID.TID 0000.0001) %MON time_tsnumber                =                   493
(PID.TID 0000.0001) %MON time_secondsf                =   4.9300000000000E+04
(PID.TID 0000.0001) %MON dynstat_eta_max              =   5.7968443502497E+00
(PID.TID 0000.0001) %MON dynstat_eta_min              =  -1.4176112154957E+01
(PID.TID 0000.0001) %MON dynstat_eta_mean             =  -2.5267894617065E+00
(PID.TID 0000.0001) %MON dynstat_eta_sd               =   4.9418860608949E+00
(PID.TID 0000.0001) %MON dynstat_eta_del2             =   1.9058096737775E-01
(PID.TID 0000.0001) %MON dynstat_uvel_max             =   2.0984429227475E-03
(PID.TID 0000.0001) %MON dynstat_uvel_min             =  -4.9563620300015E-03
(PID.TID 0000.0001) %MON dynstat_uvel_mean            =  -1.9112162952866E-09
(PID.TID 0000.0001) %MON dynstat_uvel_sd              =   1.6890441159816E-04
(PID.TID 0000.0001) %MON dynstat_uvel_del2            =   3.0274329452610E-07
(PID.TID 0000.0001) %MON dynstat_vvel_max             =   5.0819480164284E-03
(PID.TID 0000.0001) %MON dynstat_vvel_min             =  -1.9753996906333E-03
(PID.TID 0000.0001) %MON dynstat_vvel_mean            =  -5.6991932612127E-08
(PID.TID 0000.0001) %MON dynstat_vvel_sd              =   1.1502673305002E-04
(PID.TID 0000.0001) %MON dynstat_vvel_del2            =   3.0732132459790E-07
(PID.TID 0000.0001) %MON dynstat_wvel_max             =   1.5669563761541E-04
(PID.TID 0000.0001) %MON dynstat_wvel_min             =  -1.7879302203950E-04
(PID.TID 0000.0001) %MON dynstat_wvel_mean            =   1.4008905784142E-10
(PID.TID 0000.0001) %MON dynstat_wvel_sd              =   1.2926865775018E-05
(PID.TID 0000.0001) %MON dynstat_wvel_del2            =   5.7376274543614E-08
(PID.TID 0000.0001) %MON dynstat_theta_max            =   1.2000000000000E+00
(PID.TID 0000.0001) %MON dynstat_theta_min            =  -1.0000000000000E+00
(PID.TID 0000.0001) %MON dynstat_theta_mean           =   5.6540142574978E-01
(PID.TID 0000.0001) %MON dynstat_theta_sd             =   8.4904545984111E-01
(PID.TID 0000.0001) %MON dynstat_theta_del2           =   8.8233467932487E-07
(PID.TID 0000.0001) %MON dynstat_salt_max             =   3.4700000000000E+01
(PID.TID 0000.0001) %MON dynstat_salt_min             =   3.4000000000000E+01
(PID.TID 0000.0001) %MON dynstat_salt_mean            =   3.4498074134882E+01
(PID.TID 0000.0001) %MON dynstat_salt_sd              =   2.7015148045167E-01
(PID.TID 0000.0001) %MON dynstat_salt_del2            =   3.2470993083631E-07
(PID.TID 0000.0001) %MON advcfl_uvel_max              =   4.9563620300015E-04
(PID.TID 0000.0001) %MON advcfl_vvel_max              =   5.0819480164284E-04
(PID.TID 0000.0001) %MON advcfl_wvel_max              =   8.9396511019748E-04
(PID.TID 0000.0001) %MON advcfl_W_hf_max              =   8.9396511019748E-04
(PID.TID 0000.0001) %MON pe_b_mean                    =  -6.8274850329579E-01
(PID.TID 0000.0001) %MON ke_max                       =   7.8012789809935E-06
(PID.TID 0000.0001) %MON ke_mean                      =   2.0611568986087E-08
(PID.TID 0000.0001) %MON ke_vol                       =   4.6182908572507E+12
(PID.TID 0000.0001) // =======================================================
(PID.TID 0000.0001) // End MONITOR dynamic field statistics
(PID.TID 0000.0001) // =======================================================
(PID.TID 0000.0001) // =======================================================
(PID.TID 0000.0001) // Begin OBCS MONITOR field statistics
(PID.TID 0000.0001) // =======================================================
(PID.TID 0000.0001) %MON obc_N_vVel_max               =  -6.7453171835050E-08
(PID.TID 0000.0001) %MON obc_N_vVel_min               =  -6.7453171835052E-08
(PID.TID 0000.0001) %MON obc_N_vVel_mean              =  -6.7453171835052E-08
(PID.TID 0000.0001) %MON obc_N_vVel_sd                =  -3.3211044109805E-28
(PID.TID 0000.0001) %MON obc_N_vVel_Int               =  -4.4519093411134E+00
(PID.TID 0000.0001) // =======================================================
(PID.TID 0000.0001) // End OBCS MONITOR field statistics
(PID.TID 0000.0001) // =======================================================
 cg2d: Sum(rhs),rhsMax =   3.01173025135838E+00  4.53050233692635E+02
(PID.TID 0000.0001)      cg2d_init_res =   1.42195938316923E-06
(PID.TID 0000.0001)      cg2d_iters(min,last) =      -1      69
(PID.TID 0000.0001)      cg2d_last_res =   9.87098636792865E-12
(PID.TID 0000.0001) // =======================================================
(PID.TID 0000.0001) // Begin MONITOR dynamic field statistics
(PID.TID 0000.0001) // =======================================================
(PID.TID 0000.0001) %MON time_tsnumber                =                   494
(PID.TID 0000.0001) %MON time_secondsf                =   4.9400000000000E+04
(PID.TID 0000.0001) %MON dynstat_eta_max              =   5.7968471043831E+00
(PID.TID 0000.0001) %MON dynstat_eta_min              =  -1.4176106265784E+01
(PID.TID 0000.0001) %MON dynstat_eta_mean             =  -2.5267872114761E+00
(PID.TID 0000.0001) %MON dynstat_eta_sd               =   4.9418853511203E+00
(PID.TID 0000.0001) %MON dynstat_eta_del2             =   1.9058097081223E-01
(PID.TID 0000.0001) %MON dynstat_uvel_max             =   2.1017139371153E-03
(PID.TID 0000.0001) %MON dynstat_uvel_min             =  -4.9728588434697E-03
(PID.TID 0000.0001) %MON dynstat_uvel_mean            =  -1.9037968123568E-09
(PID.TID 0000.0001) %MON dynstat_uvel_sd              =   1.6924923025278E-04
(PID.TID 0000.0001) %MON dynstat_uvel_del2            =   3.0311749893344E-07
(PID.TID 0000.0001) %MON dynstat_vvel_max             =   5.0951109984378E-03
(PID.TID 0000.0001) %MON dynstat_vvel_min             =  -1.9738879357352E-03
(PID.TID 0000.0001) %MON dynstat_vvel_mean            =  -5.8096711298252E-08
(PID.TID 0000.0001) %MON dynstat_vvel_sd              =   1.1530149928875E-04
(PID.TID 0000.0001) %MON dynstat_vvel_del2            =   3.0782652060301E-07
(PID.TID 0000.0001) %MON dynstat_wvel_max             =   1.5745474485847E-04
(PID.TID 0000.0001) %MON dynstat_wvel_min             =  -1.7946845809235E-04
(PID.TID 0000.0001) %MON dynstat_wvel_mean            =   1.3907911055773E-10
(PID.TID 0000.0001) %MON dynstat_wvel_sd              =   1.3099262174867E-05
(PID.TID 0000.0001) %MON dynstat_wvel_del2            =   5.7717087824887E-08
(PID.TID 0000.0001) %MON dynstat_theta_max            =   1.2000000000000E+00
(PID.TID 0000.0001) %MON dynstat_theta_min            =  -1.0000000000000E+00
(PID.TID 0000.0001) %MON dynstat_theta_mean           =   5.6540118514334E-01
(PID.TID 0000.0001) %MON dynstat_theta_sd             =   8.4904539087304E-01
(PID.TID 0000.0001) %MON dynstat_theta_del2           =   8.8186605326679E-07
(PID.TID 0000.0001) %MON dynstat_salt_max             =   3.4700000000000E+01
(PID.TID 0000.0001) %MON dynstat_salt_min             =   3.4000000000000E+01
(PID.TID 0000.0001) %MON dynstat_salt_mean            =   3.4498074039125E+01
(PID.TID 0000.0001) %MON dynstat_salt_sd              =   2.7015145789902E-01
(PID.TID 0000.0001) %MON dynstat_salt_del2            =   3.2480696338979E-07
(PID.TID 0000.0001) %MON advcfl_uvel_max              =   4.9728588434697E-04
(PID.TID 0000.0001) %MON advcfl_vvel_max              =   5.0951109984378E-04
(PID.TID 0000.0001) %MON advcfl_wvel_max              =   8.9734229046177E-04
(PID.TID 0000.0001) %MON advcfl_W_hf_max              =   8.9734229046177E-04
(PID.TID 0000.0001) %MON pe_b_mean                    =  -6.8274789517115E-01
(PID.TID 0000.0001) %MON ke_max                       =   7.8504880791671E-06
(PID.TID 0000.0001) %MON ke_mean                      =   2.0700416126576E-08
(PID.TID 0000.0001) %MON ke_vol                       =   4.6182908705975E+12
(PID.TID 0000.0001) // =======================================================
(PID.TID 0000.0001) // End MONITOR dynamic field statistics
(PID.TID 0000.0001) // =======================================================
(PID.TID 0000.0001) // =======================================================
(PID.TID 0000.0001) // Begin OBCS MONITOR field statistics
(PID.TID 0000.0001) // =======================================================
(PID.TID 0000.0001) %MON obc_N_vVel_max               =  -6.8352149178437E-08
(PID.TID 0000.0001) %MON obc_N_vVel_min               =  -6.8352149178439E-08
(PID.TID 0000.0001) %MON obc_N_vVel_mean              =  -6.8352149178439E-08
(PID.TID 0000.0001) %MON obc_N_vVel_sd                =  -2.3508054975586E-28
(PID.TID 0000.0001) %MON obc_N_vVel_Int               =  -4.5112418457770E+00
(PID.TID 0000.0001) // =======================================================
(PID.TID 0000.0001) // End OBCS MONITOR field statistics
(PID.TID 0000.0001) // =======================================================
 cg2d: Sum(rhs),rhsMax =   3.01172762817163E+00  4.53050224213390E+02
(PID.TID 0000.0001)      cg2d_init_res =   1.42418896341896E-06
(PID.TID 0000.0001)      cg2d_iters(min,last) =      -1      69
(PID.TID 0000.0001)      cg2d_last_res =   9.86616743512195E-12
(PID.TID 0000.0001) // =======================================================
(PID.TID 0000.0001) // Begin MONITOR dynamic field statistics
(PID.TID 0000.0001) // =======================================================
(PID.TID 0000.0001) %MON time_tsnumber                =                   495
(PID.TID 0000.0001) %MON time_secondsf                =   4.9500000000000E+04
(PID.TID 0000.0001) %MON dynstat_eta_max              =   5.7968498584626E+00
(PID.TID 0000.0001) %MON dynstat_eta_min              =  -1.4176100375686E+01
(PID.TID 0000.0001) %MON dynstat_eta_mean             =  -2.5267849578015E+00
(PID.TID 0000.0001) %MON dynstat_eta_sd               =   4.9418846403547E+00
(PID.TID 0000.0001) %MON dynstat_eta_del2             =   1.9058097426159E-01
(PID.TID 0000.0001) %MON dynstat_uvel_max             =   2.1049920693592E-03
(PID.TID 0000.0001) %MON dynstat_uvel_min             =  -4.9893936985130E-03
(PID.TID 0000.0001) %MON dynstat_uvel_mean            =  -1.8977856797903E-09
(PID.TID 0000.0001) %MON dynstat_uvel_sd              =   1.6959336006433E-04
(PID.TID 0000.0001) %MON dynstat_uvel_del2            =   3.0349514405814E-07
(PID.TID 0000.0001) %MON dynstat_vvel_max             =   5.1082859970453E-03
(PID.TID 0000.0001) %MON dynstat_vvel_min             =  -1.9723339031792E-03
(PID.TID 0000.0001) %MON dynstat_vvel_mean            =  -5.9311192057838E-08
(PID.TID 0000.0001) %MON dynstat_vvel_sd              =   1.1556616092630E-04
(PID.TID 0000.0001) %MON dynstat_vvel_del2            =   3.0833472322873E-07
(PID.TID 0000.0001) %MON dynstat_wvel_max             =   1.5821556342183E-04
(PID.TID 0000.0001) %MON dynstat_wvel_min             =  -1.8014476418248E-04
(PID.TID 0000.0001) %MON dynstat_wvel_mean            =   1.3832655501009E-10
(PID.TID 0000.0001) %MON dynstat_wvel_sd              =   1.3261257220485E-05
(PID.TID 0000.0001) %MON dynstat_wvel_del2            =   5.8096423406689E-08
(PID.TID 0000.0001) %MON dynstat_theta_max            =   1.2000000000000E+00
(PID.TID 0000.0001) %MON dynstat_theta_min            =  -1.0000000000000E+00
(PID.TID 0000.0001) %MON dynstat_theta_mean           =   5.6540094426486E-01
(PID.TID 0000.0001) %MON dynstat_theta_sd             =   8.4904532174916E-01
(PID.TID 0000.0001) %MON dynstat_theta_del2           =   8.8138024806625E-07
(PID.TID 0000.0001) %MON dynstat_salt_max             =   3.4700000000000E+01
(PID.TID 0000.0001) %MON dynstat_salt_min             =   3.4000000000000E+01
(PID.TID 0000.0001) %MON dynstat_salt_mean            =   3.4498073943260E+01
(PID.TID 0000.0001) %MON dynstat_salt_sd              =   2.7015143528381E-01
(PID.TID 0000.0001) %MON dynstat_salt_del2            =   3.2489995447436E-07
(PID.TID 0000.0001) %MON advcfl_uvel_max              =   4.9893936985130E-04
(PID.TID 0000.0001) %MON advcfl_vvel_max              =   5.1082859970453E-04
(PID.TID 0000.0001) %MON advcfl_wvel_max              =   9.0072382091240E-04
(PID.TID 0000.0001) %MON advcfl_W_hf_max              =   9.0072382091240E-04
(PID.TID 0000.0001) %MON pe_b_mean                    =  -6.8274728604032E-01
(PID.TID 0000.0001) %MON ke_max                       =   7.8999774975010E-06
(PID.TID 0000.0001) %MON ke_mean                      =   2.0788173043939E-08
(PID.TID 0000.0001) %MON ke_vol                       =   4.6182908839638E+12
(PID.TID 0000.0001) // =======================================================
(PID.TID 0000.0001) // End MONITOR dynamic field statistics
(PID.TID 0000.0001) // =======================================================
(PID.TID 0000.0001) // =======================================================
(PID.TID 0000.0001) // Begin OBCS MONITOR field statistics
(PID.TID 0000.0001) // =======================================================
(PID.TID 0000.0001) %MON obc_N_vVel_max               =  -6.9375228569459E-08
(PID.TID 0000.0001) %MON obc_N_vVel_min               =  -6.9375228569459E-08
(PID.TID 0000.0001) %MON obc_N_vVel_mean              =  -6.9375228569459E-08
(PID.TID 0000.0001) %MON obc_N_vVel_sd                =   9.3152938533527E-15
(PID.TID 0000.0001) %MON obc_N_vVel_Int               =  -4.5787650855843E+00
(PID.TID 0000.0001) // =======================================================
(PID.TID 0000.0001) // End OBCS MONITOR field statistics
(PID.TID 0000.0001) // =======================================================
 cg2d: Sum(rhs),rhsMax =   3.01172500071636E+00  4.53050214741178E+02
(PID.TID 0000.0001)      cg2d_init_res =   1.42663977940706E-06
(PID.TID 0000.0001)      cg2d_iters(min,last) =      -1      69
(PID.TID 0000.0001)      cg2d_last_res =   9.85687413794604E-12
(PID.TID 0000.0001) // =======================================================
(PID.TID 0000.0001) // Begin MONITOR dynamic field statistics
(PID.TID 0000.0001) // =======================================================
(PID.TID 0000.0001) %MON time_tsnumber                =                   496
(PID.TID 0000.0001) %MON time_secondsf                =   4.9600000000000E+04
(PID.TID 0000.0001) %MON dynstat_eta_max              =   5.7968526125508E+00
(PID.TID 0000.0001) %MON dynstat_eta_min              =  -1.4176094484638E+01
(PID.TID 0000.0001) %MON dynstat_eta_mean             =  -2.5267827005850E+00
(PID.TID 0000.0001) %MON dynstat_eta_sd               =   4.9418839285969E+00
(PID.TID 0000.0001) %MON dynstat_eta_del2             =   1.9058097772594E-01
(PID.TID 0000.0001) %MON dynstat_uvel_max             =   2.1082773740435E-03
(PID.TID 0000.0001) %MON dynstat_uvel_min             =  -5.0059667364817E-03
(PID.TID 0000.0001) %MON dynstat_uvel_mean            =  -1.8933877650371E-09
(PID.TID 0000.0001) %MON dynstat_uvel_sd              =   1.6993686353124E-04
(PID.TID 0000.0001) %MON dynstat_uvel_del2            =   3.0387630558958E-07
(PID.TID 0000.0001) %MON dynstat_vvel_max             =   5.1214731183236E-03
(PID.TID 0000.0001) %MON dynstat_vvel_min             =  -1.9707376421669E-03
(PID.TID 0000.0001) %MON dynstat_vvel_mean            =  -6.0592407761018E-08
(PID.TID 0000.0001) %MON dynstat_vvel_sd              =   1.1581486478830E-04
(PID.TID 0000.0001) %MON dynstat_vvel_del2            =   3.0883569060871E-07
(PID.TID 0000.0001) %MON dynstat_wvel_max             =   1.5897809445995E-04
(PID.TID 0000.0001) %MON dynstat_wvel_min             =  -1.8082193719436E-04
(PID.TID 0000.0001) %MON dynstat_wvel_mean            =   1.3785679369631E-10
(PID.TID 0000.0001) %MON dynstat_wvel_sd              =   1.3407032593892E-05
(PID.TID 0000.0001) %MON dynstat_wvel_del2            =   5.8499898961414E-08
(PID.TID 0000.0001) %MON dynstat_theta_max            =   1.2000000000000E+00
(PID.TID 0000.0001) %MON dynstat_theta_min            =  -1.0000000000000E+00
(PID.TID 0000.0001) %MON dynstat_theta_mean           =   5.6540070310493E-01
(PID.TID 0000.0001) %MON dynstat_theta_sd             =   8.4904525249347E-01
(PID.TID 0000.0001) %MON dynstat_theta_del2           =   8.8090634841833E-07
(PID.TID 0000.0001) %MON dynstat_salt_max             =   3.4700000000000E+01
(PID.TID 0000.0001) %MON dynstat_salt_min             =   3.4000000000000E+01
(PID.TID 0000.0001) %MON dynstat_salt_mean            =   3.4498073847285E+01
(PID.TID 0000.0001) %MON dynstat_salt_sd              =   2.7015141261352E-01
(PID.TID 0000.0001) %MON dynstat_salt_del2            =   3.2499687903975E-07
(PID.TID 0000.0001) %MON advcfl_uvel_max              =   5.0059667364817E-04
(PID.TID 0000.0001) %MON advcfl_vvel_max              =   5.1214731183236E-04
(PID.TID 0000.0001) %MON advcfl_wvel_max              =   9.0410968597179E-04
(PID.TID 0000.0001) %MON advcfl_W_hf_max              =   9.0410968597179E-04
(PID.TID 0000.0001) %MON pe_b_mean                    =  -6.8274667589105E-01
(PID.TID 0000.0001) %MON ke_max                       =   7.9497489055128E-06
(PID.TID 0000.0001) %MON ke_mean                      =   2.0874163557615E-08
(PID.TID 0000.0001) %MON ke_vol                       =   4.6182908973507E+12
(PID.TID 0000.0001) // =======================================================
(PID.TID 0000.0001) // End MONITOR dynamic field statistics
(PID.TID 0000.0001) // =======================================================
(PID.TID 0000.0001) // =======================================================
(PID.TID 0000.0001) // Begin OBCS MONITOR field statistics
(PID.TID 0000.0001) // =======================================================
(PID.TID 0000.0001) %MON obc_N_vVel_max               =  -7.0485332717427E-08
(PID.TID 0000.0001) %MON obc_N_vVel_min               =  -7.0485332717429E-08
(PID.TID 0000.0001) %MON obc_N_vVel_mean              =  -7.0485332717429E-08
(PID.TID 0000.0001) %MON obc_N_vVel_sd                =  -1.4593926746589E-28
(PID.TID 0000.0001) %MON obc_N_vVel_Int               =  -4.6520319593503E+00
(PID.TID 0000.0001) // =======================================================
(PID.TID 0000.0001) // End OBCS MONITOR field statistics
(PID.TID 0000.0001) // =======================================================
 cg2d: Sum(rhs),rhsMax =   3.01172236893358E+00  4.53050205275769E+02
(PID.TID 0000.0001)      cg2d_init_res =   1.42923148328378E-06
(PID.TID 0000.0001)      cg2d_iters(min,last) =      -1      69
(PID.TID 0000.0001)      cg2d_last_res =   9.84906650629032E-12
(PID.TID 0000.0001) // =======================================================
(PID.TID 0000.0001) // Begin MONITOR dynamic field statistics
(PID.TID 0000.0001) // =======================================================
(PID.TID 0000.0001) %MON time_tsnumber                =                   497
(PID.TID 0000.0001) %MON time_secondsf                =   4.9700000000000E+04
(PID.TID 0000.0001) %MON dynstat_eta_max              =   5.7968553666611E+00
(PID.TID 0000.0001) %MON dynstat_eta_min              =  -1.4176088592724E+01
(PID.TID 0000.0001) %MON dynstat_eta_mean             =  -2.5267804397759E+00
(PID.TID 0000.0001) %MON dynstat_eta_sd               =   4.9418832158626E+00
(PID.TID 0000.0001) %MON dynstat_eta_del2             =   1.9058098120535E-01
(PID.TID 0000.0001) %MON dynstat_uvel_max             =   2.1115699050203E-03
(PID.TID 0000.0001) %MON dynstat_uvel_min             =  -5.0225780985897E-03
(PID.TID 0000.0001) %MON dynstat_uvel_mean            =  -1.8907448534778E-09
(PID.TID 0000.0001) %MON dynstat_uvel_sd              =   1.7027980106750E-04
(PID.TID 0000.0001) %MON dynstat_uvel_del2            =   3.0426104914681E-07
(PID.TID 0000.0001) %MON dynstat_vvel_max             =   5.1346724686701E-03
(PID.TID 0000.0001) %MON dynstat_vvel_min             =  -1.9690992018475E-03
(PID.TID 0000.0001) %MON dynstat_vvel_mean            =  -6.1895552695881E-08
(PID.TID 0000.0001) %MON dynstat_vvel_sd              =   1.1604232101989E-04
(PID.TID 0000.0001) %MON dynstat_vvel_del2            =   3.0931870413960E-07
(PID.TID 0000.0001) %MON dynstat_wvel_max             =   1.5974233918512E-04
(PID.TID 0000.0001) %MON dynstat_wvel_min             =  -1.8149997404473E-04
(PID.TID 0000.0001) %MON dynstat_wvel_mean            =   1.3768570571125E-10
(PID.TID 0000.0001) %MON dynstat_wvel_sd              =   1.3531206786713E-05
(PID.TID 0000.0001) %MON dynstat_wvel_del2            =   5.8910928955943E-08
(PID.TID 0000.0001) %MON dynstat_theta_max            =   1.2000000000000E+00
(PID.TID 0000.0001) %MON dynstat_theta_min            =  -1.0000000000000E+00
(PID.TID 0000.0001) %MON dynstat_theta_mean           =   5.6540046165449E-01
(PID.TID 0000.0001) %MON dynstat_theta_sd             =   8.4904518311461E-01
(PID.TID 0000.0001) %MON dynstat_theta_del2           =   8.8047467322457E-07
(PID.TID 0000.0001) %MON dynstat_salt_max             =   3.4700000000000E+01
(PID.TID 0000.0001) %MON dynstat_salt_min             =   3.4000000000000E+01
(PID.TID 0000.0001) %MON dynstat_salt_mean            =   3.4498073751196E+01
(PID.TID 0000.0001) %MON dynstat_salt_sd              =   2.7015138989118E-01
(PID.TID 0000.0001) %MON dynstat_salt_del2            =   3.2510598679448E-07
(PID.TID 0000.0001) %MON advcfl_uvel_max              =   5.0225780985897E-04
(PID.TID 0000.0001) %MON advcfl_vvel_max              =   5.1346724686701E-04
(PID.TID 0000.0001) %MON advcfl_wvel_max              =   9.0749987022365E-04
(PID.TID 0000.0001) %MON advcfl_W_hf_max              =   9.0749987022365E-04
(PID.TID 0000.0001) %MON pe_b_mean                    =  -6.8274606472148E-01
(PID.TID 0000.0001) %MON ke_max                       =   7.9998039810251E-06
(PID.TID 0000.0001) %MON ke_mean                      =   2.0957771379307E-08
(PID.TID 0000.0001) %MON ke_vol                       =   4.6182909107585E+12
(PID.TID 0000.0001) // =======================================================
(PID.TID 0000.0001) // End MONITOR dynamic field statistics
(PID.TID 0000.0001) // =======================================================
(PID.TID 0000.0001) // =======================================================
(PID.TID 0000.0001) // Begin OBCS MONITOR field statistics
(PID.TID 0000.0001) // =======================================================
(PID.TID 0000.0001) %MON obc_N_vVel_max               =  -7.1642817008985E-08
(PID.TID 0000.0001) %MON obc_N_vVel_min               =  -7.1642817008985E-08
(PID.TID 0000.0001) %MON obc_N_vVel_mean              =  -7.1642817008985E-08
(PID.TID 0000.0001) %MON obc_N_vVel_sd                =  -1.6013876375987E-28
(PID.TID 0000.0001) %MON obc_N_vVel_Int               =  -4.7284259225930E+00
(PID.TID 0000.0001) // =======================================================
(PID.TID 0000.0001) // End OBCS MONITOR field statistics
(PID.TID 0000.0001) // =======================================================
 cg2d: Sum(rhs),rhsMax =   3.01171973281828E+00  4.53050195816463E+02
(PID.TID 0000.0001)      cg2d_init_res =   1.43183769260594E-06
(PID.TID 0000.0001)      cg2d_iters(min,last) =      -1      69
(PID.TID 0000.0001)      cg2d_last_res =   9.84679709995087E-12
(PID.TID 0000.0001) // =======================================================
(PID.TID 0000.0001) // Begin MONITOR dynamic field statistics
(PID.TID 0000.0001) // =======================================================
(PID.TID 0000.0001) %MON time_tsnumber                =                   498
(PID.TID 0000.0001) %MON time_secondsf                =   4.9800000000000E+04
(PID.TID 0000.0001) %MON dynstat_eta_max              =   5.7968581207477E+00
(PID.TID 0000.0001) %MON dynstat_eta_min              =  -1.4176082700135E+01
(PID.TID 0000.0001) %MON dynstat_eta_mean             =  -2.5267781753660E+00
(PID.TID 0000.0001) %MON dynstat_eta_sd               =   4.9418825021773E+00
(PID.TID 0000.0001) %MON dynstat_eta_del2             =   1.9058098469970E-01
(PID.TID 0000.0001) %MON dynstat_uvel_max             =   2.1148697154398E-03
(PID.TID 0000.0001) %MON dynstat_uvel_min             =  -5.0392279258968E-03
(PID.TID 0000.0001) %MON dynstat_uvel_mean            =  -1.8899320425441E-09
(PID.TID 0000.0001) %MON dynstat_uvel_sd              =   1.7062222981002E-04
(PID.TID 0000.0001) %MON dynstat_uvel_del2            =   3.0464942792417E-07
(PID.TID 0000.0001) %MON dynstat_vvel_max             =   5.1478841543922E-03
(PID.TID 0000.0001) %MON dynstat_vvel_min             =  -1.9674186311915E-03
(PID.TID 0000.0001) %MON dynstat_vvel_mean            =  -6.3175512985742E-08
(PID.TID 0000.0001) %MON dynstat_vvel_sd              =   1.1624398437681E-04
(PID.TID 0000.0001) %MON dynstat_vvel_del2            =   3.0977292809582E-07
(PID.TID 0000.0001) %MON dynstat_wvel_max             =   1.6050829891999E-04
(PID.TID 0000.0001) %MON dynstat_wvel_min             =  -1.8217887165226E-04
(PID.TID 0000.0001) %MON dynstat_wvel_mean            =   1.3781822202477E-10
(PID.TID 0000.0001) %MON dynstat_wvel_sd              =   1.3628958801511E-05
(PID.TID 0000.0001) %MON dynstat_wvel_del2            =   5.9311236214848E-08
(PID.TID 0000.0001) %MON dynstat_theta_max            =   1.2000000000000E+00
(PID.TID 0000.0001) %MON dynstat_theta_min            =  -1.0000000000000E+00
(PID.TID 0000.0001) %MON dynstat_theta_mean           =   5.6540021990424E-01
(PID.TID 0000.0001) %MON dynstat_theta_sd             =   8.4904511362017E-01
(PID.TID 0000.0001) %MON dynstat_theta_del2           =   8.8011551851618E-07
(PID.TID 0000.0001) %MON dynstat_salt_max             =   3.4700000000000E+01
(PID.TID 0000.0001) %MON dynstat_salt_min             =   3.4000000000000E+01
(PID.TID 0000.0001) %MON dynstat_salt_mean            =   3.4498073654991E+01
(PID.TID 0000.0001) %MON dynstat_salt_sd              =   2.7015136711895E-01
(PID.TID 0000.0001) %MON dynstat_salt_del2            =   3.2523557190436E-07
(PID.TID 0000.0001) %MON advcfl_uvel_max              =   5.0392279258968E-04
(PID.TID 0000.0001) %MON advcfl_vvel_max              =   5.1478841543922E-04
(PID.TID 0000.0001) %MON advcfl_wvel_max              =   9.1089435826128E-04
(PID.TID 0000.0001) %MON advcfl_W_hf_max              =   9.1089435826128E-04
(PID.TID 0000.0001) %MON pe_b_mean                    =  -6.8274545253825E-01
(PID.TID 0000.0001) %MON ke_max                       =   8.0501444097909E-06
(PID.TID 0000.0001) %MON ke_mean                      =   2.1038462652326E-08
(PID.TID 0000.0001) %MON ke_vol                       =   4.6182909241877E+12
(PID.TID 0000.0001) // =======================================================
(PID.TID 0000.0001) // End MONITOR dynamic field statistics
(PID.TID 0000.0001) // =======================================================
(PID.TID 0000.0001) // =======================================================
(PID.TID 0000.0001) // Begin OBCS MONITOR field statistics
(PID.TID 0000.0001) // =======================================================
(PID.TID 0000.0001) %MON obc_N_vVel_max               =  -7.2806797532050E-08
(PID.TID 0000.0001) %MON obc_N_vVel_min               =  -7.2806797532052E-08
(PID.TID 0000.0001) %MON obc_N_vVel_mean              =  -7.2806797532052E-08
(PID.TID 0000.0001) %MON obc_N_vVel_sd                =  -1.8696003453738E-28
(PID.TID 0000.0001) %MON obc_N_vVel_Int               =  -4.8052486371155E+00
(PID.TID 0000.0001) // =======================================================
(PID.TID 0000.0001) // End OBCS MONITOR field statistics
(PID.TID 0000.0001) // =======================================================
 cg2d: Sum(rhs),rhsMax =   3.01171709242179E+00  4.53050186362176E+02
(PID.TID 0000.0001)      cg2d_init_res =   1.43431660789775E-06
(PID.TID 0000.0001)      cg2d_iters(min,last) =      -1      69
(PID.TID 0000.0001)      cg2d_last_res =   9.85245226640117E-12
(PID.TID 0000.0001) // =======================================================
(PID.TID 0000.0001) // Begin MONITOR dynamic field statistics
(PID.TID 0000.0001) // =======================================================
(PID.TID 0000.0001) %MON time_tsnumber                =                   499
(PID.TID 0000.0001) %MON time_secondsf                =   4.9900000000000E+04
(PID.TID 0000.0001) %MON dynstat_eta_max              =   5.7968608747023E+00
(PID.TID 0000.0001) %MON dynstat_eta_min              =  -1.4176076807154E+01
(PID.TID 0000.0001) %MON dynstat_eta_mean             =  -2.5267759073923E+00
(PID.TID 0000.0001) %MON dynstat_eta_sd               =   4.9418817875839E+00
(PID.TID 0000.0001) %MON dynstat_eta_del2             =   1.9058098820901E-01
(PID.TID 0000.0001) %MON dynstat_uvel_max             =   2.1181768577723E-03
(PID.TID 0000.0001) %MON dynstat_uvel_min             =  -5.0559163591766E-03
(PID.TID 0000.0001) %MON dynstat_uvel_mean            =  -1.8909494839725E-09
(PID.TID 0000.0001) %MON dynstat_uvel_sd              =   1.7096420261492E-04
(PID.TID 0000.0001) %MON dynstat_uvel_del2            =   3.0504148078700E-07
(PID.TID 0000.0001) %MON dynstat_vvel_max             =   5.1611082816734E-03
(PID.TID 0000.0001) %MON dynstat_vvel_min             =  -1.9656959818919E-03
(PID.TID 0000.0001) %MON dynstat_vvel_mean            =  -6.4388402485462E-08
(PID.TID 0000.0001) %MON dynstat_vvel_sd              =   1.1641621636295E-04
(PID.TID 0000.0001) %MON dynstat_vvel_del2            =   3.1018784527532E-07
(PID.TID 0000.0001) %MON dynstat_wvel_max             =   1.6127597501592E-04
(PID.TID 0000.0001) %MON dynstat_wvel_min             =  -1.8285862697552E-04
(PID.TID 0000.0001) %MON dynstat_wvel_mean            =   1.3824882325895E-10
(PID.TID 0000.0001) %MON dynstat_wvel_sd              =   1.3696141650838E-05
(PID.TID 0000.0001) %MON dynstat_wvel_del2            =   5.9681531339588E-08
(PID.TID 0000.0001) %MON dynstat_theta_max            =   1.2000000000000E+00
(PID.TID 0000.0001) %MON dynstat_theta_min            =  -1.0000000000000E+00
(PID.TID 0000.0001) %MON dynstat_theta_mean           =   5.6539997784503E-01
(PID.TID 0000.0001) %MON dynstat_theta_sd             =   8.4904504400499E-01
(PID.TID 0000.0001) %MON dynstat_theta_del2           =   8.7985824257451E-07
(PID.TID 0000.0001) %MON dynstat_salt_max             =   3.4700000000000E+01
(PID.TID 0000.0001) %MON dynstat_salt_min             =   3.4000000000000E+01
(PID.TID 0000.0001) %MON dynstat_salt_mean            =   3.4498073558666E+01
(PID.TID 0000.0001) %MON dynstat_salt_sd              =   2.7015134429535E-01
(PID.TID 0000.0001) %MON dynstat_salt_del2            =   3.2539360144480E-07
(PID.TID 0000.0001) %MON advcfl_uvel_max              =   5.0559163591766E-04
(PID.TID 0000.0001) %MON advcfl_vvel_max              =   5.1611082816734E-04
(PID.TID 0000.0001) %MON advcfl_wvel_max              =   9.1429313487761E-04
(PID.TID 0000.0001) %MON advcfl_W_hf_max              =   9.1429313487761E-04
(PID.TID 0000.0001) %MON pe_b_mean                    =  -6.8274483935739E-01
(PID.TID 0000.0001) %MON ke_max                       =   8.1007718848648E-06
(PID.TID 0000.0001) %MON ke_mean                      =   2.1115806551204E-08
(PID.TID 0000.0001) %MON ke_vol                       =   4.6182909376383E+12
(PID.TID 0000.0001) // =======================================================
(PID.TID 0000.0001) // End MONITOR dynamic field statistics
(PID.TID 0000.0001) // =======================================================
(PID.TID 0000.0001) // =======================================================
(PID.TID 0000.0001) // Begin OBCS MONITOR field statistics
(PID.TID 0000.0001) // =======================================================
(PID.TID 0000.0001) %MON obc_N_vVel_max               =  -7.3936634338703E-08
(PID.TID 0000.0001) %MON obc_N_vVel_min               =  -7.3936634338705E-08
(PID.TID 0000.0001) %MON obc_N_vVel_mean              =  -7.3936634338703E-08
(PID.TID 0000.0001) %MON obc_N_vVel_sd                =   1.3958819562900E-14
(PID.TID 0000.0001) %MON obc_N_vVel_Int               =  -4.8798178663544E+00
(PID.TID 0000.0001) // =======================================================
(PID.TID 0000.0001) // End OBCS MONITOR field statistics
(PID.TID 0000.0001) // =======================================================
 cg2d: Sum(rhs),rhsMax =   3.01171444785007E+00  4.53050176911303E+02
(PID.TID 0000.0001)      cg2d_init_res =   1.43650054488356E-06
(PID.TID 0000.0001)      cg2d_iters(min,last) =      -1      69
(PID.TID 0000.0001)      cg2d_last_res =   9.86557958520031E-12
(PID.TID 0000.0001) // =======================================================
(PID.TID 0000.0001) // Begin MONITOR dynamic field statistics
(PID.TID 0000.0001) // =======================================================
(PID.TID 0000.0001) %MON time_tsnumber                =                   500
(PID.TID 0000.0001) %MON time_secondsf                =   5.0000000000000E+04
(PID.TID 0000.0001) %MON dynstat_eta_max              =   5.7968636283405E+00
(PID.TID 0000.0001) %MON dynstat_eta_min              =  -1.4176070914146E+01
(PID.TID 0000.0001) %MON dynstat_eta_mean             =  -2.5267736359348E+00
(PID.TID 0000.0001) %MON dynstat_eta_sd               =   4.9418810721380E+00
(PID.TID 0000.0001) %MON dynstat_eta_del2             =   1.9058099173327E-01
(PID.TID 0000.0001) %MON dynstat_uvel_max             =   2.1214913835514E-03
(PID.TID 0000.0001) %MON dynstat_uvel_min             =  -5.0726435391084E-03
(PID.TID 0000.0001) %MON dynstat_uvel_mean            =  -1.8937333130692E-09
(PID.TID 0000.0001) %MON dynstat_uvel_sd              =   1.7130576726778E-04
(PID.TID 0000.0001) %MON dynstat_uvel_del2            =   3.0543723082137E-07
(PID.TID 0000.0001) %MON dynstat_vvel_max             =   5.1743449558479E-03
(PID.TID 0000.0001) %MON dynstat_vvel_min             =  -1.9639313089739E-03
(PID.TID 0000.0001) %MON dynstat_vvel_mean            =  -6.5493037570650E-08
(PID.TID 0000.0001) %MON dynstat_vvel_sd              =   1.1655642311702E-04
(PID.TID 0000.0001) %MON dynstat_vvel_del2            =   3.1055375472302E-07
(PID.TID 0000.0001) %MON dynstat_wvel_max             =   1.6204536890016E-04
(PID.TID 0000.0001) %MON dynstat_wvel_min             =  -1.8353923694795E-04
(PID.TID 0000.0001) %MON dynstat_wvel_mean            =   1.3896244968614E-10
(PID.TID 0000.0001) %MON dynstat_wvel_sd              =   1.3729388977579E-05
(PID.TID 0000.0001) %MON dynstat_wvel_del2            =   6.0002321114402E-08
(PID.TID 0000.0001) %MON dynstat_theta_max            =   1.2000000000000E+00
(PID.TID 0000.0001) %MON dynstat_theta_min            =  -1.0000000000000E+00
(PID.TID 0000.0001) %MON dynstat_theta_mean           =   5.6539973546791E-01
(PID.TID 0000.0001) %MON dynstat_theta_sd             =   8.4904497425080E-01
(PID.TID 0000.0001) %MON dynstat_theta_del2           =   8.7972973104685E-07
(PID.TID 0000.0001) %MON dynstat_salt_max             =   3.4700000000000E+01
(PID.TID 0000.0001) %MON dynstat_salt_min             =   3.4000000000000E+01
(PID.TID 0000.0001) %MON dynstat_salt_mean            =   3.4498073462219E+01
(PID.TID 0000.0001) %MON dynstat_salt_sd              =   2.7015132141436E-01
(PID.TID 0000.0001) %MON dynstat_salt_del2            =   3.2558737804388E-07
(PID.TID 0000.0001) %MON advcfl_uvel_max              =   5.0726435391084E-04
(PID.TID 0000.0001) %MON advcfl_vvel_max              =   5.1743449558479E-04
(PID.TID 0000.0001) %MON advcfl_wvel_max              =   9.1769618473974E-04
(PID.TID 0000.0001) %MON advcfl_W_hf_max              =   9.1769618473974E-04
(PID.TID 0000.0001) %MON pe_b_mean                    =  -6.8274422520320E-01
(PID.TID 0000.0001) %MON ke_max                       =   8.1516881069455E-06
(PID.TID 0000.0001) %MON ke_mean                      =   2.1189493115071E-08
(PID.TID 0000.0001) %MON ke_vol                       =   4.6182909511101E+12
(PID.TID 0000.0001) // =======================================================
(PID.TID 0000.0001) // End MONITOR dynamic field statistics
(PID.TID 0000.0001) // =======================================================
(PID.TID 0000.0001) // =======================================================
(PID.TID 0000.0001) // Begin OBCS MONITOR field statistics
(PID.TID 0000.0001) // =======================================================
(PID.TID 0000.0001) %MON obc_N_vVel_max               =  -7.4993315396931E-08
(PID.TID 0000.0001) %MON obc_N_vVel_min               =  -7.4993315396932E-08
(PID.TID 0000.0001) %MON obc_N_vVel_mean              =  -7.4993315396932E-08
(PID.TID 0000.0001) %MON obc_N_vVel_sd                =  -3.5025424191813E-28
(PID.TID 0000.0001) %MON obc_N_vVel_Int               =  -4.9495588161975E+00
(PID.TID 0000.0001) // =======================================================
(PID.TID 0000.0001) // End OBCS MONITOR field statistics
(PID.TID 0000.0001) // =======================================================
 cg2d: Sum(rhs),rhsMax =   3.01171179925927E+00  4.53050167461750E+02
(PID.TID 0000.0001)      cg2d_init_res =   1.43820579898190E-06
(PID.TID 0000.0001)      cg2d_iters(min,last) =      -1      69
(PID.TID 0000.0001)      cg2d_last_res =   9.88378571398422E-12
(PID.TID 0000.0001) // =======================================================
(PID.TID 0000.0001) // Begin MONITOR dynamic field statistics
(PID.TID 0000.0001) // =======================================================
(PID.TID 0000.0001) %MON time_tsnumber                =                   501
(PID.TID 0000.0001) %MON time_secondsf                =   5.0100000000000E+04
(PID.TID 0000.0001) %MON dynstat_eta_max              =   5.7968663814246E+00
(PID.TID 0000.0001) %MON dynstat_eta_min              =  -1.4176065021546E+01
(PID.TID 0000.0001) %MON dynstat_eta_mean             =  -2.5267713611129E+00
(PID.TID 0000.0001) %MON dynstat_eta_sd               =   4.9418803559007E+00
(PID.TID 0000.0001) %MON dynstat_eta_del2             =   1.9058099527236E-01
(PID.TID 0000.0001) %MON dynstat_uvel_max             =   2.1248133434337E-03
(PID.TID 0000.0001) %MON dynstat_uvel_min             =  -5.0894096062120E-03
(PID.TID 0000.0001) %MON dynstat_uvel_mean            =  -1.8981493201587E-09
(PID.TID 0000.0001) %MON dynstat_uvel_sd              =   1.7164696592656E-04
(PID.TID 0000.0001) %MON dynstat_uvel_del2            =   3.0583668413916E-07
(PID.TID 0000.0001) %MON dynstat_vvel_max             =   5.1875942812294E-03
(PID.TID 0000.0001) %MON dynstat_vvel_min             =  -1.9621246719490E-03
(PID.TID 0000.0001) %MON dynstat_vvel_mean            =  -6.6452317904171E-08
(PID.TID 0000.0001) %MON dynstat_vvel_sd              =   1.1666316357663E-04
(PID.TID 0000.0001) %MON dynstat_vvel_del2            =   3.1086230230380E-07
(PID.TID 0000.0001) %MON dynstat_wvel_max             =   1.6281648204562E-04
(PID.TID 0000.0001) %MON dynstat_wvel_min             =  -1.8422069844883E-04
(PID.TID 0000.0001) %MON dynstat_wvel_mean            =   1.3993522661964E-10
(PID.TID 0000.0001) %MON dynstat_wvel_sd              =   1.3726216452860E-05
(PID.TID 0000.0001) %MON dynstat_wvel_del2            =   6.0254790647874E-08
(PID.TID 0000.0001) %MON dynstat_theta_max            =   1.2000000000000E+00
(PID.TID 0000.0001) %MON dynstat_theta_min            =  -1.0000000000000E+00
(PID.TID 0000.0001) %MON dynstat_theta_mean           =   5.6539949276413E-01
(PID.TID 0000.0001) %MON dynstat_theta_sd             =   8.4904490433489E-01
(PID.TID 0000.0001) %MON dynstat_theta_del2           =   8.7975342107985E-07
(PID.TID 0000.0001) %MON dynstat_salt_max             =   3.4700000000000E+01
(PID.TID 0000.0001) %MON dynstat_salt_min             =   3.4000000000000E+01
(PID.TID 0000.0001) %MON dynstat_salt_mean            =   3.4498073365647E+01
(PID.TID 0000.0001) %MON dynstat_salt_sd              =   2.7015129846860E-01
(PID.TID 0000.0001) %MON dynstat_salt_del2            =   3.2582316619217E-07
(PID.TID 0000.0001) %MON advcfl_uvel_max              =   5.0894096062120E-04
(PID.TID 0000.0001) %MON advcfl_vvel_max              =   5.1875942812294E-04
(PID.TID 0000.0001) %MON advcfl_wvel_max              =   9.2110349224415E-04
(PID.TID 0000.0001) %MON advcfl_W_hf_max              =   9.2110349224415E-04
(PID.TID 0000.0001) %MON pe_b_mean                    =  -6.8274361010701E-01
(PID.TID 0000.0001) %MON ke_max                       =   8.2028947837913E-06
(PID.TID 0000.0001) %MON ke_mean                      =   2.1259347446653E-08
(PID.TID 0000.0001) %MON ke_vol                       =   4.6182909646025E+12
(PID.TID 0000.0001) // =======================================================
(PID.TID 0000.0001) // End MONITOR dynamic field statistics
(PID.TID 0000.0001) // =======================================================
(PID.TID 0000.0001) // =======================================================
(PID.TID 0000.0001) // Begin OBCS MONITOR field statistics
(PID.TID 0000.0001) // =======================================================
(PID.TID 0000.0001) %MON obc_N_vVel_max               =  -7.5940726076608E-08
(PID.TID 0000.0001) %MON obc_N_vVel_min               =  -7.5940726076609E-08
(PID.TID 0000.0001) %MON obc_N_vVel_mean              =  -7.5940726076609E-08
(PID.TID 0000.0001) %MON obc_N_vVel_sd                =  -4.2046286248280E-28
(PID.TID 0000.0001) %MON obc_N_vVel_Int               =  -5.0120879210562E+00
(PID.TID 0000.0001) // =======================================================
(PID.TID 0000.0001) // End OBCS MONITOR field statistics
(PID.TID 0000.0001) // =======================================================
 cg2d: Sum(rhs),rhsMax =   3.01170914685318E+00  4.53050158010958E+02
(PID.TID 0000.0001)      cg2d_init_res =   1.43924830514129E-06
(PID.TID 0000.0001)      cg2d_iters(min,last) =      -1      69
(PID.TID 0000.0001)      cg2d_last_res =   9.90558077655704E-12
(PID.TID 0000.0001) // =======================================================
(PID.TID 0000.0001) // Begin MONITOR dynamic field statistics
(PID.TID 0000.0001) // =======================================================
(PID.TID 0000.0001) %MON time_tsnumber                =                   502
(PID.TID 0000.0001) %MON time_secondsf                =   5.0200000000000E+04
(PID.TID 0000.0001) %MON dynstat_eta_max              =   5.7968691336519E+00
(PID.TID 0000.0001) %MON dynstat_eta_min              =  -1.4176059129869E+01
(PID.TID 0000.0001) %MON dynstat_eta_mean             =  -2.5267690830831E+00
(PID.TID 0000.0001) %MON dynstat_eta_sd               =   4.9418796389435E+00
(PID.TID 0000.0001) %MON dynstat_eta_del2             =   1.9058099882623E-01
(PID.TID 0000.0001) %MON dynstat_uvel_max             =   2.1281427872086E-03
(PID.TID 0000.0001) %MON dynstat_uvel_min             =  -5.1062147011969E-03
(PID.TID 0000.0001) %MON dynstat_uvel_mean            =  -1.9039796494299E-09
(PID.TID 0000.0001) %MON dynstat_uvel_sd              =   1.7198783481007E-04
(PID.TID 0000.0001) %MON dynstat_uvel_del2            =   3.0623982904279E-07
(PID.TID 0000.0001) %MON dynstat_vvel_max             =   5.2008563612105E-03
(PID.TID 0000.0001) %MON dynstat_vvel_min             =  -1.9602761352342E-03
(PID.TID 0000.0001) %MON dynstat_vvel_mean            =  -6.7234389551009E-08
(PID.TID 0000.0001) %MON dynstat_vvel_sd              =   1.1673622326237E-04
(PID.TID 0000.0001) %MON dynstat_vvel_del2            =   3.1110701124371E-07
(PID.TID 0000.0001) %MON dynstat_wvel_max             =   1.6358931596947E-04
(PID.TID 0000.0001) %MON dynstat_wvel_min             =  -1.8490300828208E-04
(PID.TID 0000.0001) %MON dynstat_wvel_mean            =   1.4113463127891E-10
(PID.TID 0000.0001) %MON dynstat_wvel_sd              =   1.3685118910425E-05
(PID.TID 0000.0001) %MON dynstat_wvel_del2            =   6.0421705748109E-08
(PID.TID 0000.0001) %MON dynstat_theta_max            =   1.2000000000000E+00
(PID.TID 0000.0001) %MON dynstat_theta_min            =  -1.0000000000000E+00
(PID.TID 0000.0001) %MON dynstat_theta_mean           =   5.6539924972552E-01
(PID.TID 0000.0001) %MON dynstat_theta_sd             =   8.4904483426811E-01
(PID.TID 0000.0001) %MON dynstat_theta_del2           =   8.7994805624972E-07
(PID.TID 0000.0001) %MON dynstat_salt_max             =   3.4700000000000E+01
(PID.TID 0000.0001) %MON dynstat_salt_min             =   3.4000000000000E+01
(PID.TID 0000.0001) %MON dynstat_salt_mean            =   3.4498073268948E+01
(PID.TID 0000.0001) %MON dynstat_salt_sd              =   2.7015127546178E-01
(PID.TID 0000.0001) %MON dynstat_salt_del2            =   3.2610605072277E-07
(PID.TID 0000.0001) %MON advcfl_uvel_max              =   5.1062147011969E-04
(PID.TID 0000.0001) %MON advcfl_vvel_max              =   5.2008563612105E-04
(PID.TID 0000.0001) %MON advcfl_wvel_max              =   9.2451504141042E-04
(PID.TID 0000.0001) %MON advcfl_W_hf_max              =   9.2451504141042E-04
(PID.TID 0000.0001) %MON pe_b_mean                    =  -6.8274299410757E-01
(PID.TID 0000.0001) %MON ke_max                       =   8.2543936313450E-06
(PID.TID 0000.0001) %MON ke_mean                      =   2.1325339534910E-08
(PID.TID 0000.0001) %MON ke_vol                       =   4.6182909781150E+12
(PID.TID 0000.0001) // =======================================================
(PID.TID 0000.0001) // End MONITOR dynamic field statistics
(PID.TID 0000.0001) // =======================================================
(PID.TID 0000.0001) // =======================================================
(PID.TID 0000.0001) // Begin OBCS MONITOR field statistics
(PID.TID 0000.0001) // =======================================================
(PID.TID 0000.0001) %MON obc_N_vVel_max               =  -7.6746733060935E-08
(PID.TID 0000.0001) %MON obc_N_vVel_min               =  -7.6746733060935E-08
(PID.TID 0000.0001) %MON obc_N_vVel_mean              =  -7.6746733060935E-08
(PID.TID 0000.0001) %MON obc_N_vVel_sd                =  -2.1141472259923E-28
(PID.TID 0000.0001) %MON obc_N_vVel_Int               =  -5.0652843820217E+00
(PID.TID 0000.0001) // =======================================================
(PID.TID 0000.0001) // End OBCS MONITOR field statistics
(PID.TID 0000.0001) // =======================================================
 cg2d: Sum(rhs),rhsMax =   3.01170649087229E+00  4.53050148556024E+02
(PID.TID 0000.0001)      cg2d_init_res =   1.43945468343076E-06
(PID.TID 0000.0001)      cg2d_iters(min,last) =      -1      69
(PID.TID 0000.0001)      cg2d_last_res =   9.93096012933107E-12
(PID.TID 0000.0001) // =======================================================
(PID.TID 0000.0001) // Begin MONITOR dynamic field statistics
(PID.TID 0000.0001) // =======================================================
(PID.TID 0000.0001) %MON time_tsnumber                =                   503
(PID.TID 0000.0001) %MON time_secondsf                =   5.0300000000000E+04
(PID.TID 0000.0001) %MON dynstat_eta_max              =   5.7968718847201E+00
(PID.TID 0000.0001) %MON dynstat_eta_min              =  -1.4176053239683E+01
(PID.TID 0000.0001) %MON dynstat_eta_mean             =  -2.5267668020312E+00
(PID.TID 0000.0001) %MON dynstat_eta_sd               =   4.9418789213422E+00
(PID.TID 0000.0001) %MON dynstat_eta_del2             =   1.9058100239472E-01
(PID.TID 0000.0001) %MON dynstat_uvel_max             =   2.1314797638059E-03
(PID.TID 0000.0001) %MON dynstat_uvel_min             =  -5.1230589633482E-03
(PID.TID 0000.0001) %MON dynstat_uvel_mean            =  -1.9109369747472E-09
(PID.TID 0000.0001) %MON dynstat_uvel_sd              =   1.7232840417163E-04
(PID.TID 0000.0001) %MON dynstat_uvel_del2            =   3.0664663731729E-07
(PID.TID 0000.0001) %MON dynstat_vvel_max             =   5.2141312978538E-03
(PID.TID 0000.0001) %MON dynstat_vvel_min             =  -1.9583857687877E-03
(PID.TID 0000.0001) %MON dynstat_vvel_mean            =  -6.7813582012723E-08
(PID.TID 0000.0001) %MON dynstat_vvel_sd              =   1.1677664918571E-04
(PID.TID 0000.0001) %MON dynstat_vvel_del2            =   3.1128377398831E-07
(PID.TID 0000.0001) %MON dynstat_wvel_max             =   1.6436387214324E-04
(PID.TID 0000.0001) %MON dynstat_wvel_min             =  -1.8558616336512E-04
(PID.TID 0000.0001) %MON dynstat_wvel_mean            =   1.4251989200413E-10
(PID.TID 0000.0001) %MON dynstat_wvel_sd              =   1.3605662824222E-05
(PID.TID 0000.0001) %MON dynstat_wvel_del2            =   6.0488282570907E-08
(PID.TID 0000.0001) %MON dynstat_theta_max            =   1.2000000000000E+00
(PID.TID 0000.0001) %MON dynstat_theta_min            =  -1.0000000000000E+00
(PID.TID 0000.0001) %MON dynstat_theta_mean           =   5.6539900634423E-01
(PID.TID 0000.0001) %MON dynstat_theta_sd             =   8.4904476407381E-01
(PID.TID 0000.0001) %MON dynstat_theta_del2           =   8.8032673328227E-07
(PID.TID 0000.0001) %MON dynstat_salt_max             =   3.4700000000000E+01
(PID.TID 0000.0001) %MON dynstat_salt_min             =   3.4000000000000E+01
(PID.TID 0000.0001) %MON dynstat_salt_mean            =   3.4498073172118E+01
(PID.TID 0000.0001) %MON dynstat_salt_sd              =   2.7015125240106E-01
(PID.TID 0000.0001) %MON dynstat_salt_del2            =   3.2643951184340E-07
(PID.TID 0000.0001) %MON advcfl_uvel_max              =   5.1230589633482E-04
(PID.TID 0000.0001) %MON advcfl_vvel_max              =   5.2141312978538E-04
(PID.TID 0000.0001) %MON advcfl_wvel_max              =   9.2793081682561E-04
(PID.TID 0000.0001) %MON advcfl_W_hf_max              =   9.2793081682561E-04
(PID.TID 0000.0001) %MON pe_b_mean                    =  -6.8274237724829E-01
(PID.TID 0000.0001) %MON ke_max                       =   8.3061863682268E-06
(PID.TID 0000.0001) %MON ke_mean                      =   2.1387589042312E-08
(PID.TID 0000.0001) %MON ke_vol                       =   4.6182909916465E+12
(PID.TID 0000.0001) // =======================================================
(PID.TID 0000.0001) // End MONITOR dynamic field statistics
(PID.TID 0000.0001) // =======================================================
(PID.TID 0000.0001) // =======================================================
(PID.TID 0000.0001) // Begin OBCS MONITOR field statistics
(PID.TID 0000.0001) // =======================================================
(PID.TID 0000.0001) %MON obc_N_vVel_max               =  -7.7384236708345E-08
(PID.TID 0000.0001) %MON obc_N_vVel_min               =  -7.7384236708347E-08
(PID.TID 0000.0001) %MON obc_N_vVel_mean              =  -7.7384236708347E-08
(PID.TID 0000.0001) %MON obc_N_vVel_sd                =  -1.4751698927633E-28
(PID.TID 0000.0001) %MON obc_N_vVel_Int               =  -5.1073596227509E+00
(PID.TID 0000.0001) // =======================================================
(PID.TID 0000.0001) // End OBCS MONITOR field statistics
(PID.TID 0000.0001) // =======================================================
 cg2d: Sum(rhs),rhsMax =   3.01170383159150E+00  4.53050139093496E+02
(PID.TID 0000.0001)      cg2d_init_res =   1.43868950645669E-06
(PID.TID 0000.0001)      cg2d_iters(min,last) =      -1      69
(PID.TID 0000.0001)      cg2d_last_res =   9.96046929168187E-12
(PID.TID 0000.0001) // =======================================================
(PID.TID 0000.0001) // Begin MONITOR dynamic field statistics
(PID.TID 0000.0001) // =======================================================
(PID.TID 0000.0001) %MON time_tsnumber                =                   504
(PID.TID 0000.0001) %MON time_secondsf                =   5.0400000000000E+04
(PID.TID 0000.0001) %MON dynstat_eta_max              =   5.7968746343054E+00
(PID.TID 0000.0001) %MON dynstat_eta_min              =  -1.4176047351604E+01
(PID.TID 0000.0001) %MON dynstat_eta_mean             =  -2.5267645181684E+00
(PID.TID 0000.0001) %MON dynstat_eta_sd               =   4.9418782031738E+00
(PID.TID 0000.0001) %MON dynstat_eta_del2             =   1.9058100597762E-01
(PID.TID 0000.0001) %MON dynstat_uvel_max             =   2.1348243211960E-03
(PID.TID 0000.0001) %MON dynstat_uvel_min             =  -5.1399425321943E-03
(PID.TID 0000.0001) %MON dynstat_uvel_mean            =  -1.9187138178497E-09
(PID.TID 0000.0001) %MON dynstat_uvel_sd              =   1.7266869851182E-04
(PID.TID 0000.0001) %MON dynstat_uvel_del2            =   3.0705706465313E-07
(PID.TID 0000.0001) %MON dynstat_vvel_max             =   5.2274191917265E-03
(PID.TID 0000.0001) %MON dynstat_vvel_min             =  -1.9564536484200E-03
(PID.TID 0000.0001) %MON dynstat_vvel_mean            =  -6.8171174726635E-08
(PID.TID 0000.0001) %MON dynstat_vvel_sd              =   1.1678674252566E-04
(PID.TID 0000.0001) %MON dynstat_vvel_del2            =   3.1139126862069E-07
(PID.TID 0000.0001) %MON dynstat_wvel_max             =   1.6514015202682E-04
(PID.TID 0000.0001) %MON dynstat_wvel_min             =  -1.8627016075571E-04
(PID.TID 0000.0001) %MON dynstat_wvel_mean            =   1.4404502791384E-10
(PID.TID 0000.0001) %MON dynstat_wvel_sd              =   1.3488572811887E-05
(PID.TID 0000.0001) %MON dynstat_wvel_del2            =   6.0442980837391E-08
(PID.TID 0000.0001) %MON dynstat_theta_max            =   1.2000000000000E+00
(PID.TID 0000.0001) %MON dynstat_theta_min            =  -1.0000000000000E+00
(PID.TID 0000.0001) %MON dynstat_theta_mean           =   5.6539876261320E-01
(PID.TID 0000.0001) %MON dynstat_theta_sd             =   8.4904469377381E-01
(PID.TID 0000.0001) %MON dynstat_theta_del2           =   8.8089631380913E-07
(PID.TID 0000.0001) %MON dynstat_salt_max             =   3.4700000000000E+01
(PID.TID 0000.0001) %MON dynstat_salt_min             =   3.4000000000000E+01
(PID.TID 0000.0001) %MON dynstat_salt_mean            =   3.4498073075156E+01
(PID.TID 0000.0001) %MON dynstat_salt_sd              =   2.7015122929349E-01
(PID.TID 0000.0001) %MON dynstat_salt_del2            =   3.2682533333764E-07
(PID.TID 0000.0001) %MON advcfl_uvel_max              =   5.1399425321943E-04
(PID.TID 0000.0001) %MON advcfl_vvel_max              =   5.2274191917265E-04
(PID.TID 0000.0001) %MON advcfl_wvel_max              =   9.3135080377857E-04
(PID.TID 0000.0001) %MON advcfl_W_hf_max              =   9.3135080377857E-04
(PID.TID 0000.0001) %MON pe_b_mean                    =  -6.8274175957668E-01
(PID.TID 0000.0001) %MON ke_max                       =   8.3582747209103E-06
(PID.TID 0000.0001) %MON ke_mean                      =   2.1446364595939E-08
(PID.TID 0000.0001) %MON ke_vol                       =   4.6182910051959E+12
(PID.TID 0000.0001) // =======================================================
(PID.TID 0000.0001) // End MONITOR dynamic field statistics
(PID.TID 0000.0001) // =======================================================
(PID.TID 0000.0001) // =======================================================
(PID.TID 0000.0001) // Begin OBCS MONITOR field statistics
(PID.TID 0000.0001) // =======================================================
(PID.TID 0000.0001) %MON obc_N_vVel_max               =  -7.7832122224514E-08
(PID.TID 0000.0001) %MON obc_N_vVel_min               =  -7.7832122224517E-08
(PID.TID 0000.0001) %MON obc_N_vVel_mean              =  -7.7832122224517E-08
(PID.TID 0000.0001) %MON obc_N_vVel_sd                =  -2.7925676044824E-28
(PID.TID 0000.0001) %MON obc_N_vVel_Int               =  -5.1369200668181E+00
(PID.TID 0000.0001) // =======================================================
(PID.TID 0000.0001) // End OBCS MONITOR field statistics
(PID.TID 0000.0001) // =======================================================
 cg2d: Sum(rhs),rhsMax =   3.01170116930779E+00  4.53050129619734E+02
(PID.TID 0000.0001)      cg2d_init_res =   1.43686186243393E-06
(PID.TID 0000.0001)      cg2d_iters(min,last) =      -1      69
(PID.TID 0000.0001)      cg2d_last_res =   9.99414917261688E-12
(PID.TID 0000.0001) // =======================================================
(PID.TID 0000.0001) // Begin MONITOR dynamic field statistics
(PID.TID 0000.0001) // =======================================================
(PID.TID 0000.0001) %MON time_tsnumber                =                   505
(PID.TID 0000.0001) %MON time_secondsf                =   5.0500000000000E+04
(PID.TID 0000.0001) %MON dynstat_eta_max              =   5.7968773820807E+00
(PID.TID 0000.0001) %MON dynstat_eta_min              =  -1.4176041466262E+01
(PID.TID 0000.0001) %MON dynstat_eta_mean             =  -2.5267622317237E+00
(PID.TID 0000.0001) %MON dynstat_eta_sd               =   4.9418774845152E+00
(PID.TID 0000.0001) %MON dynstat_eta_del2             =   1.9058100957478E-01
(PID.TID 0000.0001) %MON dynstat_uvel_max             =   2.1381765062447E-03
(PID.TID 0000.0001) %MON dynstat_uvel_min             =  -5.1568655466250E-03
(PID.TID 0000.0001) %MON dynstat_uvel_mean            =  -1.9269760710256E-09
(PID.TID 0000.0001) %MON dynstat_uvel_sd              =   1.7300873702958E-04
(PID.TID 0000.0001) %MON dynstat_uvel_del2            =   3.0747105215855E-07
(PID.TID 0000.0001) %MON dynstat_vvel_max             =   5.2407201415277E-03
(PID.TID 0000.0001) %MON dynstat_vvel_min             =  -1.9544798559981E-03
(PID.TID 0000.0001) %MON dynstat_vvel_mean            =  -6.8295970168654E-08
(PID.TID 0000.0001) %MON dynstat_vvel_sd              =   1.1677000640209E-04
(PID.TID 0000.0001) %MON dynstat_vvel_del2            =   3.1143126306031E-07
(PID.TID 0000.0001) %MON dynstat_wvel_max             =   1.6591815722197E-04
(PID.TID 0000.0001) %MON dynstat_wvel_min             =  -1.8695499733669E-04
(PID.TID 0000.0001) %MON dynstat_wvel_mean            =   1.4566038709416E-10
(PID.TID 0000.0001) %MON dynstat_wvel_sd              =   1.3335809471848E-05
(PID.TID 0000.0001) %MON dynstat_wvel_del2            =   6.0278185538689E-08
(PID.TID 0000.0001) %MON dynstat_theta_max            =   1.2000000000000E+00
(PID.TID 0000.0001) %MON dynstat_theta_min            =  -1.0000000000000E+00
(PID.TID 0000.0001) %MON dynstat_theta_mean           =   5.6539851852611E-01
(PID.TID 0000.0001) %MON dynstat_theta_sd             =   8.4904462339086E-01
(PID.TID 0000.0001) %MON dynstat_theta_del2           =   8.8165666670228E-07
(PID.TID 0000.0001) %MON dynstat_salt_max             =   3.4700000000000E+01
(PID.TID 0000.0001) %MON dynstat_salt_min             =   3.4000000000000E+01
(PID.TID 0000.0001) %MON dynstat_salt_mean            =   3.4498072978060E+01
(PID.TID 0000.0001) %MON dynstat_salt_sd              =   2.7015120614618E-01
(PID.TID 0000.0001) %MON dynstat_salt_del2            =   3.2726340524956E-07
(PID.TID 0000.0001) %MON advcfl_uvel_max              =   5.1568655466250E-04
(PID.TID 0000.0001) %MON advcfl_vvel_max              =   5.2407201415277E-04
(PID.TID 0000.0001) %MON advcfl_wvel_max              =   9.3477498668344E-04
(PID.TID 0000.0001) %MON advcfl_W_hf_max              =   9.3477498668344E-04
(PID.TID 0000.0001) %MON pe_b_mean                    =  -6.8274114114255E-01
(PID.TID 0000.0001) %MON ke_max                       =   8.4106604207979E-06
(PID.TID 0000.0001) %MON ke_mean                      =   2.1502077299521E-08
(PID.TID 0000.0001) %MON ke_vol                       =   4.6182910187621E+12
(PID.TID 0000.0001) // =======================================================
(PID.TID 0000.0001) // End MONITOR dynamic field statistics
(PID.TID 0000.0001) // =======================================================
(PID.TID 0000.0001) // =======================================================
(PID.TID 0000.0001) // Begin OBCS MONITOR field statistics
(PID.TID 0000.0001) // =======================================================
(PID.TID 0000.0001) %MON obc_N_vVel_max               =  -7.8075843167214E-08
(PID.TID 0000.0001) %MON obc_N_vVel_min               =  -7.8075843167214E-08
(PID.TID 0000.0001) %MON obc_N_vVel_mean              =  -7.8075843167214E-08
(PID.TID 0000.0001) %MON obc_N_vVel_sd                =  -1.0649622220484E-28
(PID.TID 0000.0001) %MON obc_N_vVel_Int               =  -5.1530056490361E+00
(PID.TID 0000.0001) // =======================================================
(PID.TID 0000.0001) // End OBCS MONITOR field statistics
(PID.TID 0000.0001) // =======================================================
 cg2d: Sum(rhs),rhsMax =   3.01169850432866E+00  4.53050120130883E+02
(PID.TID 0000.0001)      cg2d_init_res =   1.43392698928428E-06
(PID.TID 0000.0001)      cg2d_iters(min,last) =      -1      70
(PID.TID 0000.0001)      cg2d_last_res =   7.89275724201816E-12
(PID.TID 0000.0001) // =======================================================
(PID.TID 0000.0001) // Begin MONITOR dynamic field statistics
(PID.TID 0000.0001) // =======================================================
(PID.TID 0000.0001) %MON time_tsnumber                =                   506
(PID.TID 0000.0001) %MON time_secondsf                =   5.0600000000000E+04
(PID.TID 0000.0001) %MON dynstat_eta_max              =   5.7968801273973E+00
(PID.TID 0000.0001) %MON dynstat_eta_min              =  -1.4176035585108E+01
(PID.TID 0000.0001) %MON dynstat_eta_mean             =  -2.5267599429335E+00
(PID.TID 0000.0001) %MON dynstat_eta_sd               =   4.9418767654472E+00
(PID.TID 0000.0001) %MON dynstat_eta_del2             =   1.9058101318606E-01
(PID.TID 0000.0001) %MON dynstat_uvel_max             =   2.1415363643680E-03
(PID.TID 0000.0001) %MON dynstat_uvel_min             =  -5.1738281484894E-03
(PID.TID 0000.0001) %MON dynstat_uvel_mean            =  -1.9353980881461E-09
(PID.TID 0000.0001) %MON dynstat_uvel_sd              =   1.7334853431288E-04
(PID.TID 0000.0001) %MON dynstat_uvel_del2            =   3.0788852874243E-07
(PID.TID 0000.0001) %MON dynstat_vvel_max             =   5.2540342293501E-03
(PID.TID 0000.0001) %MON dynstat_vvel_min             =  -1.9524644835611E-03
(PID.TID 0000.0001) %MON dynstat_vvel_mean            =  -6.8185091226586E-08
(PID.TID 0000.0001) %MON dynstat_vvel_sd              =   1.1673104737851E-04
(PID.TID 0000.0001) %MON dynstat_vvel_del2            =   3.1140877605735E-07
(PID.TID 0000.0001) %MON dynstat_wvel_max             =   1.6669788326278E-04
(PID.TID 0000.0001) %MON dynstat_wvel_min             =  -1.8764066077929E-04
(PID.TID 0000.0001) %MON dynstat_wvel_mean            =   1.4731748777701E-10
(PID.TID 0000.0001) %MON dynstat_wvel_sd              =   1.3150634052782E-05
(PID.TID 0000.0001) %MON dynstat_wvel_del2            =   5.9990749970116E-08
(PID.TID 0000.0001) %MON dynstat_theta_max            =   1.2000000000000E+00
(PID.TID 0000.0001) %MON dynstat_theta_min            =  -1.0000000000000E+00
(PID.TID 0000.0001) %MON dynstat_theta_mean           =   5.6539827407724E-01
(PID.TID 0000.0001) %MON dynstat_theta_sd             =   8.4904455293310E-01
(PID.TID 0000.0001) %MON dynstat_theta_del2           =   8.8260048168501E-07
(PID.TID 0000.0001) %MON dynstat_salt_max             =   3.4700000000000E+01
(PID.TID 0000.0001) %MON dynstat_salt_min             =   3.4000000000000E+01
(PID.TID 0000.0001) %MON dynstat_salt_mean            =   3.4498072880827E+01
(PID.TID 0000.0001) %MON dynstat_salt_sd              =   2.7015118296174E-01
(PID.TID 0000.0001) %MON dynstat_salt_del2            =   3.2775165544595E-07
(PID.TID 0000.0001) %MON advcfl_uvel_max              =   5.1738281484894E-04
(PID.TID 0000.0001) %MON advcfl_vvel_max              =   5.2540342293501E-04
(PID.TID 0000.0001) %MON advcfl_wvel_max              =   9.3820330389645E-04
(PID.TID 0000.0001) %MON advcfl_W_hf_max              =   9.3820330389645E-04
(PID.TID 0000.0001) %MON pe_b_mean                    =  -6.8274052199577E-01
(PID.TID 0000.0001) %MON ke_max                       =   8.4633452255667E-06
(PID.TID 0000.0001) %MON ke_mean                      =   2.1555268425423E-08
(PID.TID 0000.0001) %MON ke_vol                       =   4.6182910323436E+12
(PID.TID 0000.0001) // =======================================================
(PID.TID 0000.0001) // End MONITOR dynamic field statistics
(PID.TID 0000.0001) // =======================================================
(PID.TID 0000.0001) // =======================================================
(PID.TID 0000.0001) // Begin OBCS MONITOR field statistics
(PID.TID 0000.0001) // =======================================================
(PID.TID 0000.0001) %MON obc_N_vVel_max               =  -7.8107742529647E-08
(PID.TID 0000.0001) %MON obc_N_vVel_min               =  -7.8107742529647E-08
(PID.TID 0000.0001) %MON obc_N_vVel_mean              =  -7.8107742529647E-08
(PID.TID 0000.0001) %MON obc_N_vVel_sd                =   8.6568923983145E-15
(PID.TID 0000.0001) %MON obc_N_vVel_Int               =  -5.1551110069567E+00
(PID.TID 0000.0001) // =======================================================
(PID.TID 0000.0001) // End OBCS MONITOR field statistics
(PID.TID 0000.0001) // =======================================================
 cg2d: Sum(rhs),rhsMax =   3.01169583696406E+00  4.53050110623004E+02
(PID.TID 0000.0001)      cg2d_init_res =   1.42984987733074E-06
(PID.TID 0000.0001)      cg2d_iters(min,last) =      -1      70
(PID.TID 0000.0001)      cg2d_last_res =   7.94281026224308E-12
(PID.TID 0000.0001) // =======================================================
(PID.TID 0000.0001) // Begin MONITOR dynamic field statistics
(PID.TID 0000.0001) // =======================================================
(PID.TID 0000.0001) %MON time_tsnumber                =                   507
(PID.TID 0000.0001) %MON time_secondsf                =   5.0700000000000E+04
(PID.TID 0000.0001) %MON dynstat_eta_max              =   5.7968828705704E+00
(PID.TID 0000.0001) %MON dynstat_eta_min              =  -1.4176029707013E+01
(PID.TID 0000.0001) %MON dynstat_eta_mean             =  -2.5267576520359E+00
(PID.TID 0000.0001) %MON dynstat_eta_sd               =   4.9418760460174E+00
(PID.TID 0000.0001) %MON dynstat_eta_del2             =   1.9058101681104E-01
(PID.TID 0000.0001) %MON dynstat_uvel_max             =   2.1449039423551E-03
(PID.TID 0000.0001) %MON dynstat_uvel_min             =  -5.1908304647323E-03
(PID.TID 0000.0001) %MON dynstat_uvel_mean            =  -1.9436233698658E-09
(PID.TID 0000.0001) %MON dynstat_uvel_sd              =   1.7368810116153E-04
(PID.TID 0000.0001) %MON dynstat_uvel_del2            =   3.0830941370961E-07
(PID.TID 0000.0001) %MON dynstat_vvel_max             =   5.2673615965662E-03
(PID.TID 0000.0001) %MON dynstat_vvel_min             =  -1.9504076143919E-03
(PID.TID 0000.0001) %MON dynstat_vvel_mean            =  -6.7841697232378E-08
(PID.TID 0000.0001) %MON dynstat_vvel_sd              =   1.1667543092248E-04
(PID.TID 0000.0001) %MON dynstat_vvel_del2            =   3.1133207210391E-07
(PID.TID 0000.0001) %MON dynstat_wvel_max             =   1.6747935005476E-04
(PID.TID 0000.0001) %MON dynstat_wvel_min             =  -1.8832717468654E-04
(PID.TID 0000.0001) %MON dynstat_wvel_mean            =   1.4894797829184E-10
(PID.TID 0000.0001) %MON dynstat_wvel_sd              =   1.2937652475890E-05
(PID.TID 0000.0001) %MON dynstat_wvel_del2            =   5.9582377471951E-08
(PID.TID 0000.0001) %MON dynstat_theta_max            =   1.2000000000000E+00
(PID.TID 0000.0001) %MON dynstat_theta_min            =  -1.0000000000000E+00
(PID.TID 0000.0001) %MON dynstat_theta_mean           =   5.6539802926157E-01
(PID.TID 0000.0001) %MON dynstat_theta_sd             =   8.4904448239858E-01
(PID.TID 0000.0001) %MON dynstat_theta_del2           =   8.8371327518562E-07
(PID.TID 0000.0001) %MON dynstat_salt_max             =   3.4700000000000E+01
(PID.TID 0000.0001) %MON dynstat_salt_min             =   3.4000000000000E+01
(PID.TID 0000.0001) %MON dynstat_salt_mean            =   3.4498072783457E+01
(PID.TID 0000.0001) %MON dynstat_salt_sd              =   2.7015115973948E-01
(PID.TID 0000.0001) %MON dynstat_salt_del2            =   3.2828610004913E-07
(PID.TID 0000.0001) %MON advcfl_uvel_max              =   5.1908304647323E-04
(PID.TID 0000.0001) %MON advcfl_vvel_max              =   5.2673615965662E-04
(PID.TID 0000.0001) %MON advcfl_wvel_max              =   9.4163587343270E-04
(PID.TID 0000.0001) %MON advcfl_W_hf_max              =   9.4163587343270E-04
(PID.TID 0000.0001) %MON pe_b_mean                    =  -6.8273990218445E-01
(PID.TID 0000.0001) %MON ke_max                       =   8.5163308129747E-06
(PID.TID 0000.0001) %MON ke_mean                      =   2.1606591486557E-08
(PID.TID 0000.0001) %MON ke_vol                       =   4.6182910459390E+12
(PID.TID 0000.0001) // =======================================================
(PID.TID 0000.0001) // End MONITOR dynamic field statistics
(PID.TID 0000.0001) // =======================================================
(PID.TID 0000.0001) // =======================================================
(PID.TID 0000.0001) // Begin OBCS MONITOR field statistics
(PID.TID 0000.0001) // =======================================================
(PID.TID 0000.0001) %MON obc_N_vVel_max               =  -7.7926355010267E-08
(PID.TID 0000.0001) %MON obc_N_vVel_min               =  -7.7926355010270E-08
(PID.TID 0000.0001) %MON obc_N_vVel_mean              =  -7.7926355010270E-08
(PID.TID 0000.0001) %MON obc_N_vVel_sd                =  -2.2955852341931E-28
(PID.TID 0000.0001) %MON obc_N_vVel_Int               =  -5.1431394306778E+00
(PID.TID 0000.0001) // =======================================================
(PID.TID 0000.0001) // End OBCS MONITOR field statistics
(PID.TID 0000.0001) // =======================================================
 cg2d: Sum(rhs),rhsMax =   3.01169316751285E+00  4.53050101092272E+02
(PID.TID 0000.0001)      cg2d_init_res =   1.42481494331400E-06
(PID.TID 0000.0001)      cg2d_iters(min,last) =      -1      70
(PID.TID 0000.0001)      cg2d_last_res =   7.99507940118501E-12
(PID.TID 0000.0001) // =======================================================
(PID.TID 0000.0001) // Begin MONITOR dynamic field statistics
(PID.TID 0000.0001) // =======================================================
(PID.TID 0000.0001) %MON time_tsnumber                =                   508
(PID.TID 0000.0001) %MON time_secondsf                =   5.0800000000000E+04
(PID.TID 0000.0001) %MON dynstat_eta_max              =   5.7968856109700E+00
(PID.TID 0000.0001) %MON dynstat_eta_min              =  -1.4176023833486E+01
(PID.TID 0000.0001) %MON dynstat_eta_mean             =  -2.5267553592604E+00
(PID.TID 0000.0001) %MON dynstat_eta_sd               =   4.9418753262924E+00
(PID.TID 0000.0001) %MON dynstat_eta_del2             =   1.9058102044948E-01
(PID.TID 0000.0001) %MON dynstat_uvel_max             =   2.1482792818404E-03
(PID.TID 0000.0001) %MON dynstat_uvel_min             =  -5.2078726447240E-03
(PID.TID 0000.0001) %MON dynstat_uvel_mean            =  -1.9513405175194E-09
(PID.TID 0000.0001) %MON dynstat_uvel_sd              =   1.7402744565782E-04
(PID.TID 0000.0001) %MON dynstat_uvel_del2            =   3.0873362038679E-07
(PID.TID 0000.0001) %MON dynstat_vvel_max             =   5.2807022896717E-03
(PID.TID 0000.0001) %MON dynstat_vvel_min             =  -1.9483093595110E-03
(PID.TID 0000.0001) %MON dynstat_vvel_mean            =  -6.7278723573254E-08
(PID.TID 0000.0001) %MON dynstat_vvel_sd              =   1.1660949286520E-04
(PID.TID 0000.0001) %MON dynstat_vvel_del2            =   3.1121247743378E-07
(PID.TID 0000.0001) %MON dynstat_wvel_max             =   1.6826254154712E-04
(PID.TID 0000.0001) %MON dynstat_wvel_min             =  -1.8901450969378E-04
(PID.TID 0000.0001) %MON dynstat_wvel_mean            =   1.5052075558602E-10
(PID.TID 0000.0001) %MON dynstat_wvel_sd              =   1.2702829856136E-05
(PID.TID 0000.0001) %MON dynstat_wvel_del2            =   5.9059836800706E-08
(PID.TID 0000.0001) %MON dynstat_theta_max            =   1.2000000000000E+00
(PID.TID 0000.0001) %MON dynstat_theta_min            =  -1.0000000000000E+00
(PID.TID 0000.0001) %MON dynstat_theta_mean           =   5.6539778407500E-01
(PID.TID 0000.0001) %MON dynstat_theta_sd             =   8.4904441179702E-01
(PID.TID 0000.0001) %MON dynstat_theta_del2           =   8.8497410956703E-07
(PID.TID 0000.0001) %MON dynstat_salt_max             =   3.4700000000000E+01
(PID.TID 0000.0001) %MON dynstat_salt_min             =   3.4000000000000E+01
(PID.TID 0000.0001) %MON dynstat_salt_mean            =   3.4498072685948E+01
(PID.TID 0000.0001) %MON dynstat_salt_sd              =   2.7015113648247E-01
(PID.TID 0000.0001) %MON dynstat_salt_del2            =   3.2886097659013E-07
(PID.TID 0000.0001) %MON advcfl_uvel_max              =   5.2078726447240E-04
(PID.TID 0000.0001) %MON advcfl_vvel_max              =   5.2807022896717E-04
(PID.TID 0000.0001) %MON advcfl_wvel_max              =   9.4507254846890E-04
(PID.TID 0000.0001) %MON advcfl_W_hf_max              =   9.4507254846889E-04
(PID.TID 0000.0001) %MON pe_b_mean                    =  -6.8273928175427E-01
(PID.TID 0000.0001) %MON ke_max                       =   8.5696189971133E-06
(PID.TID 0000.0001) %MON ke_mean                      =   2.1656789186447E-08
(PID.TID 0000.0001) %MON ke_vol                       =   4.6182910595469E+12
(PID.TID 0000.0001) // =======================================================
(PID.TID 0000.0001) // End MONITOR dynamic field statistics
(PID.TID 0000.0001) // =======================================================
(PID.TID 0000.0001) // =======================================================
(PID.TID 0000.0001) // Begin OBCS MONITOR field statistics
(PID.TID 0000.0001) // =======================================================
(PID.TID 0000.0001) %MON obc_N_vVel_max               =  -7.7540167748593E-08
(PID.TID 0000.0001) %MON obc_N_vVel_min               =  -7.7540167748596E-08
(PID.TID 0000.0001) %MON obc_N_vVel_mean              =  -7.7540167748593E-08
(PID.TID 0000.0001) %MON obc_N_vVel_sd                =   1.6134562241441E-14
(PID.TID 0000.0001) %MON obc_N_vVel_Int               =  -5.1176510714071E+00
(PID.TID 0000.0001) // =======================================================
(PID.TID 0000.0001) // End OBCS MONITOR field statistics
(PID.TID 0000.0001) // =======================================================
 cg2d: Sum(rhs),rhsMax =   3.01169049625717E+00  4.53050091534918E+02
(PID.TID 0000.0001)      cg2d_init_res =   1.41886286821046E-06
(PID.TID 0000.0001)      cg2d_iters(min,last) =      -1      70
(PID.TID 0000.0001)      cg2d_last_res =   8.05162632007190E-12
(PID.TID 0000.0001) // =======================================================
(PID.TID 0000.0001) // Begin MONITOR dynamic field statistics
(PID.TID 0000.0001) // =======================================================
(PID.TID 0000.0001) %MON time_tsnumber                =                   509
(PID.TID 0000.0001) %MON time_secondsf                =   5.0900000000000E+04
(PID.TID 0000.0001) %MON dynstat_eta_max              =   5.7968883483397E+00
(PID.TID 0000.0001) %MON dynstat_eta_min              =  -1.4176017965092E+01
(PID.TID 0000.0001) %MON dynstat_eta_mean             =  -2.5267530648225E+00
(PID.TID 0000.0001) %MON dynstat_eta_sd               =   4.9418746063191E+00
(PID.TID 0000.0001) %MON dynstat_eta_del2             =   1.9058102410108E-01
(PID.TID 0000.0001) %MON dynstat_uvel_max             =   2.1516624263782E-03
(PID.TID 0000.0001) %MON dynstat_uvel_min             =  -5.2249548219789E-03
(PID.TID 0000.0001) %MON dynstat_uvel_mean            =  -1.9582216545714E-09
(PID.TID 0000.0001) %MON dynstat_uvel_sd              =   1.7436657422740E-04
(PID.TID 0000.0001) %MON dynstat_uvel_del2            =   3.0916105939694E-07
(PID.TID 0000.0001) %MON dynstat_vvel_max             =   5.2940564179291E-03
(PID.TID 0000.0001) %MON dynstat_vvel_min             =  -1.9461698226673E-03
(PID.TID 0000.0001) %MON dynstat_vvel_mean            =  -6.6515423789787E-08
(PID.TID 0000.0001) %MON dynstat_vvel_sd              =   1.1654011115852E-04
(PID.TID 0000.0001) %MON dynstat_vvel_del2            =   3.1106401697264E-07
(PID.TID 0000.0001) %MON dynstat_wvel_max             =   1.6904746489534E-04
(PID.TID 0000.0001) %MON dynstat_wvel_min             =  -1.8970267122840E-04
(PID.TID 0000.0001) %MON dynstat_wvel_mean            =   1.5197370546754E-10
(PID.TID 0000.0001) %MON dynstat_wvel_sd              =   1.2453458071423E-05
(PID.TID 0000.0001) %MON dynstat_wvel_del2            =   5.8434986283876E-08
(PID.TID 0000.0001) %MON dynstat_theta_max            =   1.2000000000000E+00
(PID.TID 0000.0001) %MON dynstat_theta_min            =  -1.0000000000000E+00
(PID.TID 0000.0001) %MON dynstat_theta_mean           =   5.6539753851418E-01
(PID.TID 0000.0001) %MON dynstat_theta_sd             =   8.4904434113505E-01
(PID.TID 0000.0001) %MON dynstat_theta_del2           =   8.8635627247886E-07
(PID.TID 0000.0001) %MON dynstat_salt_max             =   3.4700000000000E+01
(PID.TID 0000.0001) %MON dynstat_salt_min             =   3.4000000000000E+01
(PID.TID 0000.0001) %MON dynstat_salt_mean            =   3.4498072588298E+01
(PID.TID 0000.0001) %MON dynstat_salt_sd              =   2.7015111319295E-01
(PID.TID 0000.0001) %MON dynstat_salt_del2            =   3.2946898868448E-07
(PID.TID 0000.0001) %MON advcfl_uvel_max              =   5.2249548219789E-04
(PID.TID 0000.0001) %MON advcfl_vvel_max              =   5.2940564179291E-04
(PID.TID 0000.0001) %MON advcfl_wvel_max              =   9.4851335614199E-04
(PID.TID 0000.0001) %MON advcfl_W_hf_max              =   9.4851335614199E-04
(PID.TID 0000.0001) %MON pe_b_mean                    =  -6.8273866074631E-01
(PID.TID 0000.0001) %MON ke_max                       =   8.6232115107729E-06
(PID.TID 0000.0001) %MON ke_mean                      =   2.1706665952573E-08
(PID.TID 0000.0001) %MON ke_vol                       =   4.6182910731660E+12
(PID.TID 0000.0001) // =======================================================
(PID.TID 0000.0001) // End MONITOR dynamic field statistics
(PID.TID 0000.0001) // =======================================================
(PID.TID 0000.0001) // =======================================================
(PID.TID 0000.0001) // Begin OBCS MONITOR field statistics
(PID.TID 0000.0001) // =======================================================
(PID.TID 0000.0001) %MON obc_N_vVel_max               =  -7.6960929745849E-08
(PID.TID 0000.0001) %MON obc_N_vVel_min               =  -7.6960929745850E-08
(PID.TID 0000.0001) %MON obc_N_vVel_mean              =  -7.6960929745850E-08
(PID.TID 0000.0001) %MON obc_N_vVel_sd                =  -8.9930143195195E-29
(PID.TID 0000.0001) %MON obc_N_vVel_Int               =  -5.0794213632261E+00
(PID.TID 0000.0001) // =======================================================
(PID.TID 0000.0001) // End OBCS MONITOR field statistics
(PID.TID 0000.0001) // =======================================================
 cg2d: Sum(rhs),rhsMax =   3.01168782345140E+00  4.53050081947455E+02
(PID.TID 0000.0001)      cg2d_init_res =   1.41218264548641E-06
(PID.TID 0000.0001)      cg2d_iters(min,last) =      -1      70
(PID.TID 0000.0001)      cg2d_last_res =   8.11250312952751E-12
(PID.TID 0000.0001) // =======================================================
(PID.TID 0000.0001) // Begin MONITOR dynamic field statistics
(PID.TID 0000.0001) // =======================================================
(PID.TID 0000.0001) %MON time_tsnumber                =                   510
(PID.TID 0000.0001) %MON time_secondsf                =   5.1000000000000E+04
(PID.TID 0000.0001) %MON dynstat_eta_max              =   5.7968910824516E+00
(PID.TID 0000.0001) %MON dynstat_eta_min              =  -1.4176012102318E+01
(PID.TID 0000.0001) %MON dynstat_eta_mean             =  -2.5267507689163E+00
(PID.TID 0000.0001) %MON dynstat_eta_sd               =   4.9418738861321E+00
(PID.TID 0000.0001) %MON dynstat_eta_del2             =   1.9058102776549E-01
(PID.TID 0000.0001) %MON dynstat_uvel_max             =   2.1550534179156E-03
(PID.TID 0000.0001) %MON dynstat_uvel_min             =  -5.2420771331514E-03
(PID.TID 0000.0001) %MON dynstat_uvel_mean            =  -1.9639831106192E-09
(PID.TID 0000.0001) %MON dynstat_uvel_sd              =   1.7470549282114E-04
(PID.TID 0000.0001) %MON dynstat_uvel_del2            =   3.0959164273765E-07
(PID.TID 0000.0001) %MON dynstat_vvel_max             =   5.3074240721880E-03
(PID.TID 0000.0001) %MON dynstat_vvel_min             =  -1.9439891146344E-03
(PID.TID 0000.0001) %MON dynstat_vvel_mean            =  -6.5577352180095E-08
(PID.TID 0000.0001) %MON dynstat_vvel_sd              =   1.1647444440584E-04
(PID.TID 0000.0001) %MON dynstat_vvel_del2            =   3.1090288211924E-07
(PID.TID 0000.0001) %MON dynstat_wvel_max             =   1.6983412222083E-04
(PID.TID 0000.0001) %MON dynstat_wvel_min             =  -1.9039165639744E-04
(PID.TID 0000.0001) %MON dynstat_wvel_mean            =   1.5326636297108E-10
(PID.TID 0000.0001) %MON dynstat_wvel_sd              =   1.2198058765931E-05
(PID.TID 0000.0001) %MON dynstat_wvel_del2            =   5.7724610079858E-08
(PID.TID 0000.0001) %MON dynstat_theta_max            =   1.2000000000000E+00
(PID.TID 0000.0001) %MON dynstat_theta_min            =  -1.0000000000000E+00
(PID.TID 0000.0001) %MON dynstat_theta_mean           =   5.6539729257671E-01
(PID.TID 0000.0001) %MON dynstat_theta_sd             =   8.4904427040436E-01
(PID.TID 0000.0001) %MON dynstat_theta_del2           =   8.8782839980923E-07
(PID.TID 0000.0001) %MON dynstat_salt_max             =   3.4700000000000E+01
(PID.TID 0000.0001) %MON dynstat_salt_min             =   3.4000000000000E+01
(PID.TID 0000.0001) %MON dynstat_salt_mean            =   3.4498072490508E+01
(PID.TID 0000.0001) %MON dynstat_salt_sd              =   2.7015108986821E-01
(PID.TID 0000.0001) %MON dynstat_salt_del2            =   3.3010158461935E-07
(PID.TID 0000.0001) %MON advcfl_uvel_max              =   5.2420771331514E-04
(PID.TID 0000.0001) %MON advcfl_vvel_max              =   5.3074240721880E-04
(PID.TID 0000.0001) %MON advcfl_wvel_max              =   9.5195828198720E-04
(PID.TID 0000.0001) %MON advcfl_W_hf_max              =   9.5195828198720E-04
(PID.TID 0000.0001) %MON pe_b_mean                    =  -6.8273803919598E-01
(PID.TID 0000.0001) %MON ke_max                       =   8.6771101139570E-06
(PID.TID 0000.0001) %MON ke_mean                      =   2.1757057049322E-08
(PID.TID 0000.0001) %MON ke_vol                       =   4.6182910867950E+12
(PID.TID 0000.0001) // =======================================================
(PID.TID 0000.0001) // End MONITOR dynamic field statistics
(PID.TID 0000.0001) // =======================================================
(PID.TID 0000.0001) // =======================================================
(PID.TID 0000.0001) // Begin OBCS MONITOR field statistics
(PID.TID 0000.0001) // =======================================================
(PID.TID 0000.0001) %MON obc_N_vVel_max               =  -7.6208497220665E-08
(PID.TID 0000.0001) %MON obc_N_vVel_min               =  -7.6208497220667E-08
(PID.TID 0000.0001) %MON obc_N_vVel_mean              =  -7.6208497220667E-08
(PID.TID 0000.0001) %MON obc_N_vVel_sd                =  -1.4278382384500E-28
(PID.TID 0000.0001) %MON obc_N_vVel_Int               =  -5.0297608165640E+00
(PID.TID 0000.0001) // =======================================================
(PID.TID 0000.0001) // End OBCS MONITOR field statistics
(PID.TID 0000.0001) // =======================================================
 cg2d: Sum(rhs),rhsMax =   3.01168514931374E+00  4.53050072326879E+02
(PID.TID 0000.0001)      cg2d_init_res =   1.40501001734094E-06
(PID.TID 0000.0001)      cg2d_iters(min,last) =      -1      70
(PID.TID 0000.0001)      cg2d_last_res =   8.17718089944621E-12
(PID.TID 0000.0001) // =======================================================
(PID.TID 0000.0001) // Begin MONITOR dynamic field statistics
(PID.TID 0000.0001) // =======================================================
(PID.TID 0000.0001) %MON time_tsnumber                =                   511
(PID.TID 0000.0001) %MON time_secondsf                =   5.1100000000000E+04
(PID.TID 0000.0001) %MON dynstat_eta_max              =   5.7968938131469E+00
(PID.TID 0000.0001) %MON dynstat_eta_min              =  -1.4176006245583E+01
(PID.TID 0000.0001) %MON dynstat_eta_mean             =  -2.5267484717081E+00
(PID.TID 0000.0001) %MON dynstat_eta_sd               =   4.9418731657521E+00
(PID.TID 0000.0001) %MON dynstat_eta_del2             =   1.9058103144232E-01
(PID.TID 0000.0001) %MON dynstat_uvel_max             =   2.1584522971612E-03
(PID.TID 0000.0001) %MON dynstat_uvel_min             =  -5.2592397154942E-03
(PID.TID 0000.0001) %MON dynstat_uvel_mean            =  -1.9683721432288E-09
(PID.TID 0000.0001) %MON dynstat_uvel_sd              =   1.7504420806599E-04
(PID.TID 0000.0001) %MON dynstat_uvel_del2            =   3.1002528763499E-07
(PID.TID 0000.0001) %MON dynstat_vvel_max             =   5.3208053419433E-03
(PID.TID 0000.0001) %MON dynstat_vvel_min             =  -1.9417673518527E-03
(PID.TID 0000.0001) %MON dynstat_vvel_mean            =  -6.4495513080616E-08
(PID.TID 0000.0001) %MON dynstat_vvel_sd              =   1.1641964634679E-04
(PID.TID 0000.0001) %MON dynstat_vvel_del2            =   3.1074675413730E-07
(PID.TID 0000.0001) %MON dynstat_wvel_max             =   1.7062251525935E-04
(PID.TID 0000.0001) %MON dynstat_wvel_min             =  -1.9108146188321E-04
(PID.TID 0000.0001) %MON dynstat_wvel_mean            =   1.5435792575877E-10
(PID.TID 0000.0001) %MON dynstat_wvel_sd              =   1.1946195419919E-05
(PID.TID 0000.0001) %MON dynstat_wvel_del2            =   5.6950048159482E-08
(PID.TID 0000.0001) %MON dynstat_theta_max            =   1.2000000000000E+00
(PID.TID 0000.0001) %MON dynstat_theta_min            =  -1.0000000000000E+00
(PID.TID 0000.0001) %MON dynstat_theta_mean           =   5.6539704626112E-01
(PID.TID 0000.0001) %MON dynstat_theta_sd             =   8.4904419960995E-01
(PID.TID 0000.0001) %MON dynstat_theta_del2           =   8.8935561449225E-07
(PID.TID 0000.0001) %MON dynstat_salt_max             =   3.4700000000000E+01
(PID.TID 0000.0001) %MON dynstat_salt_min             =   3.4000000000000E+01
(PID.TID 0000.0001) %MON dynstat_salt_mean            =   3.4498072392576E+01
(PID.TID 0000.0001) %MON dynstat_salt_sd              =   2.7015106650968E-01
(PID.TID 0000.0001) %MON dynstat_salt_del2            =   3.3074925539979E-07
(PID.TID 0000.0001) %MON advcfl_uvel_max              =   5.2592397154942E-04
(PID.TID 0000.0001) %MON advcfl_vvel_max              =   5.3208053419433E-04
(PID.TID 0000.0001) %MON advcfl_wvel_max              =   9.5540730941606E-04
(PID.TID 0000.0001) %MON advcfl_W_hf_max              =   9.5540730941606E-04
(PID.TID 0000.0001) %MON pe_b_mean                    =  -6.8273741713175E-01
(PID.TID 0000.0001) %MON ke_max                       =   8.7313165749878E-06
(PID.TID 0000.0001) %MON ke_mean                      =   2.1808795458656E-08
(PID.TID 0000.0001) %MON ke_vol                       =   4.6182911004326E+12
(PID.TID 0000.0001) // =======================================================
(PID.TID 0000.0001) // End MONITOR dynamic field statistics
(PID.TID 0000.0001) // =======================================================
(PID.TID 0000.0001) // =======================================================
(PID.TID 0000.0001) // Begin OBCS MONITOR field statistics
(PID.TID 0000.0001) // =======================================================
(PID.TID 0000.0001) %MON obc_N_vVel_max               =  -7.5307661658591E-08
(PID.TID 0000.0001) %MON obc_N_vVel_min               =  -7.5307661658595E-08
(PID.TID 0000.0001) %MON obc_N_vVel_mean              =  -7.5307661658595E-08
(PID.TID 0000.0001) %MON obc_N_vVel_sd                =  -3.7865323450609E-28
(PID.TID 0000.0001) %MON obc_N_vVel_Int               =  -4.9703056694672E+00
(PID.TID 0000.0001) // =======================================================
(PID.TID 0000.0001) // End OBCS MONITOR field statistics
(PID.TID 0000.0001) // =======================================================
 cg2d: Sum(rhs),rhsMax =   3.01168247401853E+00  4.53050062670735E+02
(PID.TID 0000.0001)      cg2d_init_res =   1.39761669827745E-06
(PID.TID 0000.0001)      cg2d_iters(min,last) =      -1      70
(PID.TID 0000.0001)      cg2d_last_res =   8.24273200517756E-12
(PID.TID 0000.0001) // =======================================================
(PID.TID 0000.0001) // Begin MONITOR dynamic field statistics
(PID.TID 0000.0001) // =======================================================
(PID.TID 0000.0001) %MON time_tsnumber                =                   512
(PID.TID 0000.0001) %MON time_secondsf                =   5.1200000000000E+04
(PID.TID 0000.0001) %MON dynstat_eta_max              =   5.7968965403174E+00
(PID.TID 0000.0001) %MON dynstat_eta_min              =  -1.4176000395210E+01
(PID.TID 0000.0001) %MON dynstat_eta_mean             =  -2.5267461733305E+00
(PID.TID 0000.0001) %MON dynstat_eta_sd               =   4.9418724451852E+00
(PID.TID 0000.0001) %MON dynstat_eta_del2             =   1.9058103513114E-01
(PID.TID 0000.0001) %MON dynstat_uvel_max             =   2.1618591041204E-03
(PID.TID 0000.0001) %MON dynstat_uvel_min             =  -5.2764427060028E-03
(PID.TID 0000.0001) %MON dynstat_uvel_mean            =  -1.9711723653172E-09
(PID.TID 0000.0001) %MON dynstat_uvel_sd              =   1.7538272836861E-04
(PID.TID 0000.0001) %MON dynstat_uvel_del2            =   3.1046192052931E-07
(PID.TID 0000.0001) %MON dynstat_vvel_max             =   5.3342003161634E-03
(PID.TID 0000.0001) %MON dynstat_vvel_min             =  -1.9395046544481E-03
(PID.TID 0000.0001) %MON dynstat_vvel_mean            =  -6.3305292840938E-08
(PID.TID 0000.0001) %MON dynstat_vvel_sd              =   1.1638256724127E-04
(PID.TID 0000.0001) %MON dynstat_vvel_del2            =   3.1061401232046E-07
(PID.TID 0000.0001) %MON dynstat_wvel_max             =   1.7141264586468E-04
(PID.TID 0000.0001) %MON dynstat_wvel_min             =  -1.9177208451170E-04
(PID.TID 0000.0001) %MON dynstat_wvel_mean            =   1.5521631991412E-10
(PID.TID 0000.0001) %MON dynstat_wvel_sd              =   1.1708166903052E-05
(PID.TID 0000.0001) %MON dynstat_wvel_del2            =   5.6136603230828E-08
(PID.TID 0000.0001) %MON dynstat_theta_max            =   1.2000000000000E+00
(PID.TID 0000.0001) %MON dynstat_theta_min            =  -1.0000000000000E+00
(PID.TID 0000.0001) %MON dynstat_theta_mean           =   5.6539679956683E-01
(PID.TID 0000.0001) %MON dynstat_theta_sd             =   8.4904412874992E-01
(PID.TID 0000.0001) %MON dynstat_theta_del2           =   8.9090106246168E-07
(PID.TID 0000.0001) %MON dynstat_salt_max             =   3.4700000000000E+01
(PID.TID 0000.0001) %MON dynstat_salt_min             =   3.4000000000000E+01
(PID.TID 0000.0001) %MON dynstat_salt_mean            =   3.4498072294503E+01
(PID.TID 0000.0001) %MON dynstat_salt_sd              =   2.7015104311688E-01
(PID.TID 0000.0001) %MON dynstat_salt_del2            =   3.3140200239806E-07
(PID.TID 0000.0001) %MON advcfl_uvel_max              =   5.2764427060028E-04
(PID.TID 0000.0001) %MON advcfl_vvel_max              =   5.3342003161634E-04
(PID.TID 0000.0001) %MON advcfl_wvel_max              =   9.5886042255851E-04
(PID.TID 0000.0001) %MON advcfl_W_hf_max              =   9.5886042255851E-04
(PID.TID 0000.0001) %MON pe_b_mean                    =  -6.8273679457415E-01
(PID.TID 0000.0001) %MON ke_max                       =   8.7858326687553E-06
(PID.TID 0000.0001) %MON ke_mean                      =   2.1862677841273E-08
(PID.TID 0000.0001) %MON ke_vol                       =   4.6182911140781E+12
(PID.TID 0000.0001) // =======================================================
(PID.TID 0000.0001) // End MONITOR dynamic field statistics
(PID.TID 0000.0001) // =======================================================
(PID.TID 0000.0001) // =======================================================
(PID.TID 0000.0001) // Begin OBCS MONITOR field statistics
(PID.TID 0000.0001) // =======================================================
(PID.TID 0000.0001) %MON obc_N_vVel_max               =  -7.4288150394370E-08
(PID.TID 0000.0001) %MON obc_N_vVel_min               =  -7.4288150394371E-08
(PID.TID 0000.0001) %MON obc_N_vVel_mean              =  -7.4288150394371E-08
(PID.TID 0000.0001) %MON obc_N_vVel_sd                =  -2.9424511764744E-28
(PID.TID 0000.0001) %MON obc_N_vVel_Int               =  -4.9030179260285E+00
(PID.TID 0000.0001) // =======================================================
(PID.TID 0000.0001) // End OBCS MONITOR field statistics
(PID.TID 0000.0001) // =======================================================
 cg2d: Sum(rhs),rhsMax =   3.01167979768876E+00  4.53050052977252E+02
(PID.TID 0000.0001)      cg2d_init_res =   1.39030538039272E-06
(PID.TID 0000.0001)      cg2d_iters(min,last) =      -1      70
(PID.TID 0000.0001)      cg2d_last_res =   8.30415765628590E-12
(PID.TID 0000.0001) // =======================================================
(PID.TID 0000.0001) // Begin MONITOR dynamic field statistics
(PID.TID 0000.0001) // =======================================================
(PID.TID 0000.0001) %MON time_tsnumber                =                   513
(PID.TID 0000.0001) %MON time_secondsf                =   5.1300000000000E+04
(PID.TID 0000.0001) %MON dynstat_eta_max              =   5.7968992639264E+00
(PID.TID 0000.0001) %MON dynstat_eta_min              =  -1.4175994551452E+01
(PID.TID 0000.0001) %MON dynstat_eta_mean             =  -2.5267438738767E+00
(PID.TID 0000.0001) %MON dynstat_eta_sd               =   4.9418717244222E+00
(PID.TID 0000.0001) %MON dynstat_eta_del2             =   1.9058103883150E-01
(PID.TID 0000.0001) %MON dynstat_uvel_max             =   2.1652738775622E-03
(PID.TID 0000.0001) %MON dynstat_uvel_min             =  -5.2936862414805E-03
(PID.TID 0000.0001) %MON dynstat_uvel_mean            =  -1.9722176617929E-09
(PID.TID 0000.0001) %MON dynstat_uvel_sd              =   1.7572106493145E-04
(PID.TID 0000.0001) %MON dynstat_uvel_del2            =   3.1090148059462E-07
(PID.TID 0000.0001) %MON dynstat_vvel_max             =   5.3476090828319E-03
(PID.TID 0000.0001) %MON dynstat_vvel_min             =  -1.9372011463501E-03
(PID.TID 0000.0001) %MON dynstat_vvel_mean            =  -6.2045275891356E-08
(PID.TID 0000.0001) %MON dynstat_vvel_sd              =   1.1636945532461E-04
(PID.TID 0000.0001) %MON dynstat_vvel_del2            =   3.1052287032656E-07
(PID.TID 0000.0001) %MON dynstat_wvel_max             =   1.7220451591019E-04
(PID.TID 0000.0001) %MON dynstat_wvel_min             =  -1.9246352113950E-04
(PID.TID 0000.0001) %MON dynstat_wvel_mean            =   1.5581873896326E-10
(PID.TID 0000.0001) %MON dynstat_wvel_sd              =   1.1494559364672E-05
(PID.TID 0000.0001) %MON dynstat_wvel_del2            =   5.5312710949649E-08
(PID.TID 0000.0001) %MON dynstat_theta_max            =   1.2000000000000E+00
(PID.TID 0000.0001) %MON dynstat_theta_min            =  -1.0000000000000E+00
(PID.TID 0000.0001) %MON dynstat_theta_mean           =   5.6539655249403E-01
(PID.TID 0000.0001) %MON dynstat_theta_sd             =   8.4904405781129E-01
(PID.TID 0000.0001) %MON dynstat_theta_del2           =   8.9242751701670E-07
(PID.TID 0000.0001) %MON dynstat_salt_max             =   3.4700000000000E+01
(PID.TID 0000.0001) %MON dynstat_salt_min             =   3.4000000000000E+01
(PID.TID 0000.0001) %MON dynstat_salt_mean            =   3.4498072196288E+01
(PID.TID 0000.0001) %MON dynstat_salt_sd              =   2.7015101968556E-01
(PID.TID 0000.0001) %MON dynstat_salt_del2            =   3.3204967358906E-07
(PID.TID 0000.0001) %MON advcfl_uvel_max              =   5.2936862414805E-04
(PID.TID 0000.0001) %MON advcfl_vvel_max              =   5.3476090828319E-04
(PID.TID 0000.0001) %MON advcfl_wvel_max              =   9.6231760569752E-04
(PID.TID 0000.0001) %MON advcfl_W_hf_max              =   9.6231760569752E-04
(PID.TID 0000.0001) %MON pe_b_mean                    =  -6.8273617153460E-01
(PID.TID 0000.0001) %MON ke_max                       =   8.8406601775430E-06
(PID.TID 0000.0001) %MON ke_mean                      =   2.1919431026233E-08
(PID.TID 0000.0001) %MON ke_vol                       =   4.6182911277304E+12
(PID.TID 0000.0001) // =======================================================
(PID.TID 0000.0001) // End MONITOR dynamic field statistics
(PID.TID 0000.0001) // =======================================================
(PID.TID 0000.0001) // =======================================================
(PID.TID 0000.0001) // Begin OBCS MONITOR field statistics
(PID.TID 0000.0001) // =======================================================
(PID.TID 0000.0001) %MON obc_N_vVel_max               =  -7.3183417704296E-08
(PID.TID 0000.0001) %MON obc_N_vVel_min               =  -7.3183417704297E-08
(PID.TID 0000.0001) %MON obc_N_vVel_mean              =  -7.3183417704296E-08
(PID.TID 0000.0001) %MON obc_N_vVel_sd                =  -1.4909471108677E-28
(PID.TID 0000.0001) %MON obc_N_vVel_Int               =  -4.8301055684836E+00
(PID.TID 0000.0001) // =======================================================
(PID.TID 0000.0001) // End OBCS MONITOR field statistics
(PID.TID 0000.0001) // =======================================================
 cg2d: Sum(rhs),rhsMax =   3.01167712039727E+00  4.53050043245471E+02
(PID.TID 0000.0001)      cg2d_init_res =   1.38338959609885E-06
(PID.TID 0000.0001)      cg2d_iters(min,last) =      -1      70
(PID.TID 0000.0001)      cg2d_last_res =   8.35663778796876E-12
(PID.TID 0000.0001) // =======================================================
(PID.TID 0000.0001) // Begin MONITOR dynamic field statistics
(PID.TID 0000.0001) // =======================================================
(PID.TID 0000.0001) %MON time_tsnumber                =                   514
(PID.TID 0000.0001) %MON time_secondsf                =   5.1400000000000E+04
(PID.TID 0000.0001) %MON dynstat_eta_max              =   5.7969019839989E+00
(PID.TID 0000.0001) %MON dynstat_eta_min              =  -1.4175988714460E+01
(PID.TID 0000.0001) %MON dynstat_eta_mean             =  -2.5267415734025E+00
(PID.TID 0000.0001) %MON dynstat_eta_sd               =   4.9418710034392E+00
(PID.TID 0000.0001) %MON dynstat_eta_del2             =   1.9058104254293E-01
(PID.TID 0000.0001) %MON dynstat_uvel_max             =   2.1686966554952E-03
(PID.TID 0000.0001) %MON dynstat_uvel_min             =  -5.3109704586785E-03
(PID.TID 0000.0001) %MON dynstat_uvel_mean            =  -1.9714073583379E-09
(PID.TID 0000.0001) %MON dynstat_uvel_sd              =   1.7605923257221E-04
(PID.TID 0000.0001) %MON dynstat_uvel_del2            =   3.1134392251637E-07
(PID.TID 0000.0001) %MON dynstat_vvel_max             =   5.3610317296522E-03
(PID.TID 0000.0001) %MON dynstat_vvel_min             =  -1.9348569542190E-03
(PID.TID 0000.0001) %MON dynstat_vvel_mean            =  -6.0755926591558E-08
(PID.TID 0000.0001) %MON dynstat_vvel_sd              =   1.1638567274097E-04
(PID.TID 0000.0001) %MON dynstat_vvel_del2            =   3.1049048648637E-07
(PID.TID 0000.0001) %MON dynstat_wvel_max             =   1.7299812729354E-04
(PID.TID 0000.0001) %MON dynstat_wvel_min             =  -1.9315576865254E-04
(PID.TID 0000.0001) %MON dynstat_wvel_mean            =   1.5615120219864E-10
(PID.TID 0000.0001) %MON dynstat_wvel_sd              =   1.1315648949553E-05
(PID.TID 0000.0001) %MON dynstat_wvel_del2            =   5.4508861254627E-08
(PID.TID 0000.0001) %MON dynstat_theta_max            =   1.2000000000000E+00
(PID.TID 0000.0001) %MON dynstat_theta_min            =  -1.0000000000000E+00
(PID.TID 0000.0001) %MON dynstat_theta_mean           =   5.6539630504413E-01
(PID.TID 0000.0001) %MON dynstat_theta_sd             =   8.4904398677820E-01
(PID.TID 0000.0001) %MON dynstat_theta_del2           =   8.9389902717769E-07
(PID.TID 0000.0001) %MON dynstat_salt_max             =   3.4700000000000E+01
(PID.TID 0000.0001) %MON dynstat_salt_min             =   3.4000000000000E+01
(PID.TID 0000.0001) %MON dynstat_salt_mean            =   3.4498072097932E+01
(PID.TID 0000.0001) %MON dynstat_salt_sd              =   2.7015099621062E-01
(PID.TID 0000.0001) %MON dynstat_salt_del2            =   3.3268251247454E-07
(PID.TID 0000.0001) %MON advcfl_uvel_max              =   5.3109704586785E-04
(PID.TID 0000.0001) %MON advcfl_vvel_max              =   5.3610317296522E-04
(PID.TID 0000.0001) %MON advcfl_wvel_max              =   9.6577884326270E-04
(PID.TID 0000.0001) %MON advcfl_W_hf_max              =   9.6577884326270E-04
(PID.TID 0000.0001) %MON pe_b_mean                    =  -6.8273554801672E-01
(PID.TID 0000.0001) %MON ke_max                       =   8.8958008915709E-06
(PID.TID 0000.0001) %MON ke_mean                      =   2.1979680491833E-08
(PID.TID 0000.0001) %MON ke_vol                       =   4.6182911413892E+12
(PID.TID 0000.0001) // =======================================================
(PID.TID 0000.0001) // End MONITOR dynamic field statistics
(PID.TID 0000.0001) // =======================================================
(PID.TID 0000.0001) // =======================================================
(PID.TID 0000.0001) // Begin OBCS MONITOR field statistics
(PID.TID 0000.0001) // =======================================================
(PID.TID 0000.0001) %MON obc_N_vVel_max               =  -7.2029319664679E-08
(PID.TID 0000.0001) %MON obc_N_vVel_min               =  -7.2029319664679E-08
(PID.TID 0000.0001) %MON obc_N_vVel_mean              =  -7.2029319664679E-08
(PID.TID 0000.0001) %MON obc_N_vVel_sd                =   7.6918507455343E-15
(PID.TID 0000.0001) %MON obc_N_vVel_Int               =  -4.7539350978688E+00
(PID.TID 0000.0001) // =======================================================
(PID.TID 0000.0001) // End OBCS MONITOR field statistics
(PID.TID 0000.0001) // =======================================================
 cg2d: Sum(rhs),rhsMax =   3.01167444216242E+00  4.53050033475304E+02
(PID.TID 0000.0001)      cg2d_init_res =   1.37718042158877E-06
(PID.TID 0000.0001)      cg2d_iters(min,last) =      -1      70
(PID.TID 0000.0001)      cg2d_last_res =   8.39944400008935E-12
(PID.TID 0000.0001) // =======================================================
(PID.TID 0000.0001) // Begin MONITOR dynamic field statistics
(PID.TID 0000.0001) // =======================================================
(PID.TID 0000.0001) %MON time_tsnumber                =                   515
(PID.TID 0000.0001) %MON time_secondsf                =   5.1500000000000E+04
(PID.TID 0000.0001) %MON dynstat_eta_max              =   5.7969047006111E+00
(PID.TID 0000.0001) %MON dynstat_eta_min              =  -1.4175982884299E+01
(PID.TID 0000.0001) %MON dynstat_eta_mean             =  -2.5267392719230E+00
(PID.TID 0000.0001) %MON dynstat_eta_sd               =   4.9418702822011E+00
(PID.TID 0000.0001) %MON dynstat_eta_del2             =   1.9058104626507E-01
(PID.TID 0000.0001) %MON dynstat_uvel_max             =   2.1721274747843E-03
(PID.TID 0000.0001) %MON dynstat_uvel_min             =  -5.3282954944409E-03
(PID.TID 0000.0001) %MON dynstat_uvel_mean            =  -1.9687009027249E-09
(PID.TID 0000.0001) %MON dynstat_uvel_sd              =   1.7639725037599E-04
(PID.TID 0000.0001) %MON dynstat_uvel_del2            =   3.1178921924918E-07
(PID.TID 0000.0001) %MON dynstat_vvel_max             =   5.3744683439418E-03
(PID.TID 0000.0001) %MON dynstat_vvel_min             =  -1.9324722066196E-03
(PID.TID 0000.0001) %MON dynstat_vvel_mean            =  -5.9478228137945E-08
(PID.TID 0000.0001) %MON dynstat_vvel_sd              =   1.1643544073020E-04
(PID.TID 0000.0001) %MON dynstat_vvel_del2            =   3.1053209981688E-07
(PID.TID 0000.0001) %MON dynstat_wvel_max             =   1.7379348194523E-04
(PID.TID 0000.0001) %MON dynstat_wvel_min             =  -1.9384882396266E-04
(PID.TID 0000.0001) %MON dynstat_wvel_mean            =   1.5620807949228E-10
(PID.TID 0000.0001) %MON dynstat_wvel_sd              =   1.1180678809218E-05
(PID.TID 0000.0001) %MON dynstat_wvel_del2            =   5.3756273571225E-08
(PID.TID 0000.0001) %MON dynstat_theta_max            =   1.2000000000000E+00
(PID.TID 0000.0001) %MON dynstat_theta_min            =  -1.0000000000000E+00
(PID.TID 0000.0001) %MON dynstat_theta_mean           =   5.6539605721962E-01
(PID.TID 0000.0001) %MON dynstat_theta_sd             =   8.4904391564250E-01
(PID.TID 0000.0001) %MON dynstat_theta_del2           =   8.9528248055045E-07
(PID.TID 0000.0001) %MON dynstat_salt_max             =   3.4700000000000E+01
(PID.TID 0000.0001) %MON dynstat_salt_min             =   3.4000000000000E+01
(PID.TID 0000.0001) %MON dynstat_salt_mean            =   3.4498071999437E+01
(PID.TID 0000.0001) %MON dynstat_salt_sd              =   2.7015097268960E-01
(PID.TID 0000.0001) %MON dynstat_salt_del2            =   3.3329153862970E-07
(PID.TID 0000.0001) %MON advcfl_uvel_max              =   5.3282954944409E-04
(PID.TID 0000.0001) %MON advcfl_vvel_max              =   5.3744683439418E-04
(PID.TID 0000.0001) %MON advcfl_wvel_max              =   9.6924411981330E-04
(PID.TID 0000.0001) %MON advcfl_W_hf_max              =   9.6924411981330E-04
(PID.TID 0000.0001) %MON pe_b_mean                    =  -6.8273492401563E-01
(PID.TID 0000.0001) %MON ke_max                       =   8.9512566097568E-06
(PID.TID 0000.0001) %MON ke_mean                      =   2.2043922279197E-08
(PID.TID 0000.0001) %MON ke_vol                       =   4.6182911550540E+12
(PID.TID 0000.0001) // =======================================================
(PID.TID 0000.0001) // End MONITOR dynamic field statistics
(PID.TID 0000.0001) // =======================================================
(PID.TID 0000.0001) // =======================================================
(PID.TID 0000.0001) // Begin OBCS MONITOR field statistics
(PID.TID 0000.0001) // =======================================================
(PID.TID 0000.0001) %MON obc_N_vVel_max               =  -7.0862879652369E-08
(PID.TID 0000.0001) %MON obc_N_vVel_min               =  -7.0862879652371E-08
(PID.TID 0000.0001) %MON obc_N_vVel_mean              =  -7.0862879652369E-08
(PID.TID 0000.0001) %MON obc_N_vVel_sd                =   1.6134562241441E-14
(PID.TID 0000.0001) %MON obc_N_vVel_Int               =  -4.6769500570563E+00
(PID.TID 0000.0001) // =======================================================
(PID.TID 0000.0001) // End OBCS MONITOR field statistics
(PID.TID 0000.0001) // =======================================================
 cg2d: Sum(rhs),rhsMax =   3.01167176294364E+00  4.53050023667636E+02
(PID.TID 0000.0001)      cg2d_init_res =   1.37195042310889E-06
(PID.TID 0000.0001)      cg2d_iters(min,last) =      -1      70
(PID.TID 0000.0001)      cg2d_last_res =   8.43663971093169E-12
(PID.TID 0000.0001) // =======================================================
(PID.TID 0000.0001) // Begin MONITOR dynamic field statistics
(PID.TID 0000.0001) // =======================================================
(PID.TID 0000.0001) %MON time_tsnumber                =                   516
(PID.TID 0000.0001) %MON time_secondsf                =   5.1600000000000E+04
(PID.TID 0000.0001) %MON dynstat_eta_max              =   5.7969074139351E+00
(PID.TID 0000.0001) %MON dynstat_eta_min              =  -1.4175977060950E+01
(PID.TID 0000.0001) %MON dynstat_eta_mean             =  -2.5267369694088E+00
(PID.TID 0000.0001) %MON dynstat_eta_sd               =   4.9418695606589E+00
(PID.TID 0000.0001) %MON dynstat_eta_del2             =   1.9058104999743E-01
(PID.TID 0000.0001) %MON dynstat_uvel_max             =   2.1755663715624E-03
(PID.TID 0000.0001) %MON dynstat_uvel_min             =  -5.3456614856158E-03
(PID.TID 0000.0001) %MON dynstat_uvel_mean            =  -1.9641043216010E-09
(PID.TID 0000.0001) %MON dynstat_uvel_sd              =   1.7673514210741E-04
(PID.TID 0000.0001) %MON dynstat_uvel_del2            =   3.1223736381266E-07
(PID.TID 0000.0001) %MON dynstat_vvel_max             =   5.3879190133217E-03
(PID.TID 0000.0001) %MON dynstat_vvel_min             =  -1.9300470333405E-03
(PID.TID 0000.0001) %MON dynstat_vvel_mean            =  -5.8252314666654E-08
(PID.TID 0000.0001) %MON dynstat_vvel_sd              =   1.1652162836533E-04
(PID.TID 0000.0001) %MON dynstat_vvel_del2            =   3.1066023948547E-07
(PID.TID 0000.0001) %MON dynstat_wvel_max             =   1.7459058179052E-04
(PID.TID 0000.0001) %MON dynstat_wvel_min             =  -1.9454268400951E-04
(PID.TID 0000.0001) %MON dynstat_wvel_mean            =   1.5599290818474E-10
(PID.TID 0000.0001) %MON dynstat_wvel_sd              =   1.1097076812918E-05
(PID.TID 0000.0001) %MON dynstat_wvel_del2            =   5.3085350540464E-08
(PID.TID 0000.0001) %MON dynstat_theta_max            =   1.2000000000000E+00
(PID.TID 0000.0001) %MON dynstat_theta_min            =  -1.0000000000000E+00
(PID.TID 0000.0001) %MON dynstat_theta_mean           =   5.6539580902363E-01
(PID.TID 0000.0001) %MON dynstat_theta_sd             =   8.4904384441243E-01
(PID.TID 0000.0001) %MON dynstat_theta_del2           =   8.9654906038466E-07
(PID.TID 0000.0001) %MON dynstat_salt_max             =   3.4700000000000E+01
(PID.TID 0000.0001) %MON dynstat_salt_min             =   3.4000000000000E+01
(PID.TID 0000.0001) %MON dynstat_salt_mean            =   3.4498071900802E+01
(PID.TID 0000.0001) %MON dynstat_salt_sd              =   2.7015094912511E-01
(PID.TID 0000.0001) %MON dynstat_salt_del2            =   3.3386894419614E-07
(PID.TID 0000.0001) %MON advcfl_uvel_max              =   5.3456614856158E-04
(PID.TID 0000.0001) %MON advcfl_vvel_max              =   5.3879190133217E-04
(PID.TID 0000.0001) %MON advcfl_wvel_max              =   9.7271342004754E-04
(PID.TID 0000.0001) %MON advcfl_W_hf_max              =   9.7271342004754E-04
(PID.TID 0000.0001) %MON pe_b_mean                    =  -6.8273429951732E-01
(PID.TID 0000.0001) %MON ke_max                       =   9.0070291396979E-06
(PID.TID 0000.0001) %MON ke_mean                      =   2.2112499665505E-08
(PID.TID 0000.0001) %MON ke_vol                       =   4.6182911687248E+12
(PID.TID 0000.0001) // =======================================================
(PID.TID 0000.0001) // End MONITOR dynamic field statistics
(PID.TID 0000.0001) // =======================================================
(PID.TID 0000.0001) // =======================================================
(PID.TID 0000.0001) // Begin OBCS MONITOR field statistics
(PID.TID 0000.0001) // =======================================================
(PID.TID 0000.0001) %MON obc_N_vVel_max               =  -6.9721135454711E-08
(PID.TID 0000.0001) %MON obc_N_vVel_min               =  -6.9721135454713E-08
(PID.TID 0000.0001) %MON obc_N_vVel_mean              =  -6.9721135454713E-08
(PID.TID 0000.0001) %MON obc_N_vVel_sd                =  -1.6092762466509E-28
(PID.TID 0000.0001) %MON obc_N_vVel_Int               =  -4.6015949400110E+00
(PID.TID 0000.0001) // =======================================================
(PID.TID 0000.0001) // End OBCS MONITOR field statistics
(PID.TID 0000.0001) // =======================================================
 cg2d: Sum(rhs),rhsMax =   3.01166908264527E+00  4.53050013824333E+02
(PID.TID 0000.0001)      cg2d_init_res =   1.36792102563173E-06
(PID.TID 0000.0001)      cg2d_iters(min,last) =      -1      70
(PID.TID 0000.0001)      cg2d_last_res =   8.47300646446763E-12
(PID.TID 0000.0001) // =======================================================
(PID.TID 0000.0001) // Begin MONITOR dynamic field statistics
(PID.TID 0000.0001) // =======================================================
(PID.TID 0000.0001) %MON time_tsnumber                =                   517
(PID.TID 0000.0001) %MON time_secondsf                =   5.1700000000000E+04
(PID.TID 0000.0001) %MON dynstat_eta_max              =   5.7969101241939E+00
(PID.TID 0000.0001) %MON dynstat_eta_min              =  -1.4175971244305E+01
(PID.TID 0000.0001) %MON dynstat_eta_mean             =  -2.5267346657903E+00
(PID.TID 0000.0001) %MON dynstat_eta_sd               =   4.9418688387492E+00
(PID.TID 0000.0001) %MON dynstat_eta_del2             =   1.9058105373937E-01
(PID.TID 0000.0001) %MON dynstat_uvel_max             =   2.1790133812107E-03
(PID.TID 0000.0001) %MON dynstat_uvel_min             =  -5.3630685693360E-03
(PID.TID 0000.0001) %MON dynstat_uvel_mean            =  -1.9576966940025E-09
(PID.TID 0000.0001) %MON dynstat_uvel_sd              =   1.7707293636840E-04
(PID.TID 0000.0001) %MON dynstat_uvel_del2            =   3.1268837014108E-07
(PID.TID 0000.0001) %MON dynstat_vvel_max             =   5.4013838257114E-03
(PID.TID 0000.0001) %MON dynstat_vvel_min             =  -1.9275815645523E-03
(PID.TID 0000.0001) %MON dynstat_vvel_mean            =  -5.7116135166393E-08
(PID.TID 0000.0001) %MON dynstat_vvel_sd              =   1.1664559746468E-04
(PID.TID 0000.0001) %MON dynstat_vvel_del2            =   3.1088405331827E-07
(PID.TID 0000.0001) %MON dynstat_wvel_max             =   1.7538942885918E-04
(PID.TID 0000.0001) %MON dynstat_wvel_min             =  -1.9523734572648E-04
(PID.TID 0000.0001) %MON dynstat_wvel_mean            =   1.5551844641775E-10
(PID.TID 0000.0001) %MON dynstat_wvel_sd              =   1.1069724071107E-05
(PID.TID 0000.0001) %MON dynstat_wvel_del2            =   5.2523975471684E-08
(PID.TID 0000.0001) %MON dynstat_theta_max            =   1.2000000000000E+00
(PID.TID 0000.0001) %MON dynstat_theta_min            =  -1.0000000000000E+00
(PID.TID 0000.0001) %MON dynstat_theta_mean           =   5.6539556046017E-01
(PID.TID 0000.0001) %MON dynstat_theta_sd             =   8.4904377308705E-01
(PID.TID 0000.0001) %MON dynstat_theta_del2           =   8.9767548185680E-07
(PID.TID 0000.0001) %MON dynstat_salt_max             =   3.4700000000000E+01
(PID.TID 0000.0001) %MON dynstat_salt_min             =   3.4000000000000E+01
(PID.TID 0000.0001) %MON dynstat_salt_mean            =   3.4498071802029E+01
(PID.TID 0000.0001) %MON dynstat_salt_sd              =   2.7015092551667E-01
(PID.TID 0000.0001) %MON dynstat_salt_del2            =   3.3440843994207E-07
(PID.TID 0000.0001) %MON advcfl_uvel_max              =   5.3630685693360E-04
(PID.TID 0000.0001) %MON advcfl_vvel_max              =   5.4013838257114E-04
(PID.TID 0000.0001) %MON advcfl_wvel_max              =   9.7618672863242E-04
(PID.TID 0000.0001) %MON advcfl_W_hf_max              =   9.7618672863242E-04
(PID.TID 0000.0001) %MON pe_b_mean                    =  -6.8273367449940E-01
(PID.TID 0000.0001) %MON ke_max                       =   9.0631202988982E-06
(PID.TID 0000.0001) %MON ke_mean                      =   2.2185585757107E-08
(PID.TID 0000.0001) %MON ke_vol                       =   4.6182911824017E+12
(PID.TID 0000.0001) // =======================================================
(PID.TID 0000.0001) // End MONITOR dynamic field statistics
(PID.TID 0000.0001) // =======================================================
(PID.TID 0000.0001) // =======================================================
(PID.TID 0000.0001) // Begin OBCS MONITOR field statistics
(PID.TID 0000.0001) // =======================================================
(PID.TID 0000.0001) %MON obc_N_vVel_max               =  -6.8639936608920E-08
(PID.TID 0000.0001) %MON obc_N_vVel_min               =  -6.8639936608920E-08
(PID.TID 0000.0001) %MON obc_N_vVel_mean              =  -6.8639936608920E-08
(PID.TID 0000.0001) %MON obc_N_vVel_sd                =  -3.5498740734946E-29
(PID.TID 0000.0001) %MON obc_N_vVel_Int               =  -4.5302358161887E+00
(PID.TID 0000.0001) // =======================================================
(PID.TID 0000.0001) // End OBCS MONITOR field statistics
(PID.TID 0000.0001) // =======================================================
 cg2d: Sum(rhs),rhsMax =   3.01166640112168E+00  4.53050003948314E+02
(PID.TID 0000.0001)      cg2d_init_res =   1.36529181370338E-06
(PID.TID 0000.0001)      cg2d_iters(min,last) =      -1      70
(PID.TID 0000.0001)      cg2d_last_res =   8.51001700712570E-12
(PID.TID 0000.0001) // =======================================================
(PID.TID 0000.0001) // Begin MONITOR dynamic field statistics
(PID.TID 0000.0001) // =======================================================
(PID.TID 0000.0001) %MON time_tsnumber                =                   518
(PID.TID 0000.0001) %MON time_secondsf                =   5.1800000000000E+04
(PID.TID 0000.0001) %MON dynstat_eta_max              =   5.7969128316630E+00
(PID.TID 0000.0001) %MON dynstat_eta_min              =  -1.4175965434185E+01
(PID.TID 0000.0001) %MON dynstat_eta_mean             =  -2.5267323609614E+00
(PID.TID 0000.0001) %MON dynstat_eta_sd               =   4.9418681164010E+00
(PID.TID 0000.0001) %MON dynstat_eta_del2             =   1.9058105749035E-01
(PID.TID 0000.0001) %MON dynstat_uvel_max             =   2.1824685383045E-03
(PID.TID 0000.0001) %MON dynstat_uvel_min             =  -5.3805168829690E-03
(PID.TID 0000.0001) %MON dynstat_uvel_mean            =  -1.9496318665943E-09
(PID.TID 0000.0001) %MON dynstat_uvel_sd              =   1.7741066648612E-04
(PID.TID 0000.0001) %MON dynstat_uvel_del2            =   3.1314227303313E-07
(PID.TID 0000.0001) %MON dynstat_vvel_max             =   5.4148628695532E-03
(PID.TID 0000.0001) %MON dynstat_vvel_min             =  -1.9250759304459E-03
(PID.TID 0000.0001) %MON dynstat_vvel_mean            =  -5.6104241535803E-08
(PID.TID 0000.0001) %MON dynstat_vvel_sd              =   1.1680711358054E-04
(PID.TID 0000.0001) %MON dynstat_vvel_del2            =   3.1120879170955E-07
(PID.TID 0000.0001) %MON dynstat_wvel_max             =   1.7619002522037E-04
(PID.TID 0000.0001) %MON dynstat_wvel_min             =  -1.9593280606397E-04
(PID.TID 0000.0001) %MON dynstat_wvel_mean            =   1.5480574642618E-10
(PID.TID 0000.0001) %MON dynstat_wvel_sd              =   1.1100406898703E-05
(PID.TID 0000.0001) %MON dynstat_wvel_del2            =   5.2095764331918E-08
(PID.TID 0000.0001) %MON dynstat_theta_max            =   1.2000000000000E+00
(PID.TID 0000.0001) %MON dynstat_theta_min            =  -1.0000000000000E+00
(PID.TID 0000.0001) %MON dynstat_theta_mean           =   5.6539531153430E-01
(PID.TID 0000.0001) %MON dynstat_theta_sd             =   8.4904370164471E-01
(PID.TID 0000.0001) %MON dynstat_theta_del2           =   8.9864513846157E-07
(PID.TID 0000.0001) %MON dynstat_salt_max             =   3.4700000000000E+01
(PID.TID 0000.0001) %MON dynstat_salt_min             =   3.4000000000000E+01
(PID.TID 0000.0001) %MON dynstat_salt_mean            =   3.4498071703119E+01
(PID.TID 0000.0001) %MON dynstat_salt_sd              =   2.7015090185755E-01
(PID.TID 0000.0001) %MON dynstat_salt_del2            =   3.3490562073401E-07
(PID.TID 0000.0001) %MON advcfl_uvel_max              =   5.3805168829690E-04
(PID.TID 0000.0001) %MON advcfl_vvel_max              =   5.4148628695532E-04
(PID.TID 0000.0001) %MON advcfl_wvel_max              =   9.7966403031986E-04
(PID.TID 0000.0001) %MON advcfl_W_hf_max              =   9.7966403031986E-04
(PID.TID 0000.0001) %MON pe_b_mean                    =  -6.8273304893280E-01
(PID.TID 0000.0001) %MON ke_max                       =   9.1195319149279E-06
(PID.TID 0000.0001) %MON ke_mean                      =   2.2263172926540E-08
(PID.TID 0000.0001) %MON ke_vol                       =   4.6182911960852E+12
(PID.TID 0000.0001) // =======================================================
(PID.TID 0000.0001) // End MONITOR dynamic field statistics
(PID.TID 0000.0001) // =======================================================
(PID.TID 0000.0001) // =======================================================
(PID.TID 0000.0001) // Begin OBCS MONITOR field statistics
(PID.TID 0000.0001) // =======================================================
(PID.TID 0000.0001) %MON obc_N_vVel_max               =  -6.7652733293001E-08
(PID.TID 0000.0001) %MON obc_N_vVel_min               =  -6.7652733293001E-08
(PID.TID 0000.0001) %MON obc_N_vVel_mean              =  -6.7652733293001E-08
(PID.TID 0000.0001) %MON obc_N_vVel_sd                =  -8.8352421384753E-29
(PID.TID 0000.0001) %MON obc_N_vVel_Int               =  -4.4650803973381E+00
(PID.TID 0000.0001) // =======================================================
(PID.TID 0000.0001) // End OBCS MONITOR field statistics
(PID.TID 0000.0001) // =======================================================
 cg2d: Sum(rhs),rhsMax =   3.01166371818237E+00  4.53049994043482E+02
(PID.TID 0000.0001)      cg2d_init_res =   1.36419829971757E-06
(PID.TID 0000.0001)      cg2d_iters(min,last) =      -1      70
(PID.TID 0000.0001)      cg2d_last_res =   8.54625126472560E-12
(PID.TID 0000.0001) // =======================================================
(PID.TID 0000.0001) // Begin MONITOR dynamic field statistics
(PID.TID 0000.0001) // =======================================================
(PID.TID 0000.0001) %MON time_tsnumber                =                   519
(PID.TID 0000.0001) %MON time_secondsf                =   5.1900000000000E+04
(PID.TID 0000.0001) %MON dynstat_eta_max              =   5.7969155366663E+00
(PID.TID 0000.0001) %MON dynstat_eta_min              =  -1.4175959630339E+01
(PID.TID 0000.0001) %MON dynstat_eta_mean             =  -2.5267300547842E+00
(PID.TID 0000.0001) %MON dynstat_eta_sd               =   4.9418673935388E+00
(PID.TID 0000.0001) %MON dynstat_eta_del2             =   1.9058106125004E-01
(PID.TID 0000.0001) %MON dynstat_uvel_max             =   2.1859318767312E-03
(PID.TID 0000.0001) %MON dynstat_uvel_min             =  -5.3980065640964E-03
(PID.TID 0000.0001) %MON dynstat_uvel_mean            =  -1.9401137280952E-09
(PID.TID 0000.0001) %MON dynstat_uvel_sd              =   1.7774837015134E-04
(PID.TID 0000.0001) %MON dynstat_uvel_del2            =   3.1359912772050E-07
(PID.TID 0000.0001) %MON dynstat_vvel_max             =   5.4283562341584E-03
(PID.TID 0000.0001) %MON dynstat_vvel_min             =  -1.9225302602601E-03
(PID.TID 0000.0001) %MON dynstat_vvel_mean            =  -5.5246769311746E-08
(PID.TID 0000.0001) %MON dynstat_vvel_sd              =   1.1700432943889E-04
(PID.TID 0000.0001) %MON dynstat_vvel_del2            =   3.1163547458206E-07
(PID.TID 0000.0001) %MON dynstat_wvel_max             =   1.7699237297903E-04
(PID.TID 0000.0001) %MON dynstat_wvel_min             =  -1.9662906197387E-04
(PID.TID 0000.0001) %MON dynstat_wvel_mean            =   1.5388301894915E-10
(PID.TID 0000.0001) %MON dynstat_wvel_sd              =   1.1187567322104E-05
(PID.TID 0000.0001) %MON dynstat_wvel_del2            =   5.1818429653929E-08
(PID.TID 0000.0001) %MON dynstat_theta_max            =   1.2000000000000E+00
(PID.TID 0000.0001) %MON dynstat_theta_min            =  -1.0000000000000E+00
(PID.TID 0000.0001) %MON dynstat_theta_mean           =   5.6539506225210E-01
(PID.TID 0000.0001) %MON dynstat_theta_sd             =   8.4904363007975E-01
(PID.TID 0000.0001) %MON dynstat_theta_del2           =   8.9944858884166E-07
(PID.TID 0000.0001) %MON dynstat_salt_max             =   3.4700000000000E+01
(PID.TID 0000.0001) %MON dynstat_salt_min             =   3.4000000000000E+01
(PID.TID 0000.0001) %MON dynstat_salt_mean            =   3.4498071604076E+01
(PID.TID 0000.0001) %MON dynstat_salt_sd              =   2.7015087814577E-01
(PID.TID 0000.0001) %MON dynstat_salt_del2            =   3.3535793912590E-07
(PID.TID 0000.0001) %MON advcfl_uvel_max              =   5.3980065640964E-04
(PID.TID 0000.0001) %MON advcfl_vvel_max              =   5.4283562341584E-04
(PID.TID 0000.0001) %MON advcfl_wvel_max              =   9.8314530986934E-04
(PID.TID 0000.0001) %MON advcfl_W_hf_max              =   9.8314530986934E-04
(PID.TID 0000.0001) %MON pe_b_mean                    =  -6.8273242278284E-01
(PID.TID 0000.0001) %MON ke_max                       =   9.1762658254571E-06
(PID.TID 0000.0001) %MON ke_mean                      =   2.2345069744041E-08
(PID.TID 0000.0001) %MON ke_vol                       =   4.6182912097759E+12
(PID.TID 0000.0001) // =======================================================
(PID.TID 0000.0001) // End MONITOR dynamic field statistics
(PID.TID 0000.0001) // =======================================================
(PID.TID 0000.0001) // =======================================================
(PID.TID 0000.0001) // Begin OBCS MONITOR field statistics
(PID.TID 0000.0001) // =======================================================
(PID.TID 0000.0001) %MON obc_N_vVel_max               =  -6.6789513531288E-08
(PID.TID 0000.0001) %MON obc_N_vVel_min               =  -6.6789513531289E-08
(PID.TID 0000.0001) %MON obc_N_vVel_mean              =  -6.6789513531288E-08
(PID.TID 0000.0001) %MON obc_N_vVel_sd                =   1.2685725232129E-14
(PID.TID 0000.0001) %MON obc_N_vVel_Int               =  -4.4081078930650E+00
(PID.TID 0000.0001) // =======================================================
(PID.TID 0000.0001) // End OBCS MONITOR field statistics
(PID.TID 0000.0001) // =======================================================
 cg2d: Sum(rhs),rhsMax =   3.01166103359557E+00  4.53049984114848E+02
(PID.TID 0000.0001)      cg2d_init_res =   1.36468254047145E-06
(PID.TID 0000.0001)      cg2d_iters(min,last) =      -1      70
(PID.TID 0000.0001)      cg2d_last_res =   8.58167329361723E-12
(PID.TID 0000.0001) // =======================================================
(PID.TID 0000.0001) // Begin MONITOR dynamic field statistics
(PID.TID 0000.0001) // =======================================================
(PID.TID 0000.0001) %MON time_tsnumber                =                   520
(PID.TID 0000.0001) %MON time_secondsf                =   5.2000000000000E+04
(PID.TID 0000.0001) %MON dynstat_eta_max              =   5.7969182395514E+00
(PID.TID 0000.0001) %MON dynstat_eta_min              =  -1.4175953832476E+01
(PID.TID 0000.0001) %MON dynstat_eta_mean             =  -2.5267277470922E+00
(PID.TID 0000.0001) %MON dynstat_eta_sd               =   4.9418666700832E+00
(PID.TID 0000.0001) %MON dynstat_eta_del2             =   1.9058106501812E-01
(PID.TID 0000.0001) %MON dynstat_uvel_max             =   2.1894034297407E-03
(PID.TID 0000.0001) %MON dynstat_uvel_min             =  -5.4155377506540E-03
(PID.TID 0000.0001) %MON dynstat_uvel_mean            =  -1.9293912913771E-09
(PID.TID 0000.0001) %MON dynstat_uvel_sd              =   1.7808608873921E-04
(PID.TID 0000.0001) %MON dynstat_uvel_del2            =   3.1405900704400E-07
(PID.TID 0000.0001) %MON dynstat_vvel_max             =   5.4418640097891E-03
(PID.TID 0000.0001) %MON dynstat_vvel_min             =  -1.9199446820091E-03
(PID.TID 0000.0001) %MON dynstat_vvel_mean            =  -5.4568446135785E-08
(PID.TID 0000.0001) %MON dynstat_vvel_sd              =   1.1723384336291E-04
(PID.TID 0000.0001) %MON dynstat_vvel_del2            =   3.1216075601349E-07
(PID.TID 0000.0001) %MON dynstat_wvel_max             =   1.7779647424385E-04
(PID.TID 0000.0001) %MON dynstat_wvel_min             =  -1.9732611044697E-04
(PID.TID 0000.0001) %MON dynstat_wvel_mean            =   1.5278526832884E-10
(PID.TID 0000.0001) %MON dynstat_wvel_sd              =   1.1326406685218E-05
(PID.TID 0000.0001) %MON dynstat_wvel_del2            =   5.1702440610629E-08
(PID.TID 0000.0001) %MON dynstat_theta_max            =   1.2000000000000E+00
(PID.TID 0000.0001) %MON dynstat_theta_min            =  -1.0000000000000E+00
(PID.TID 0000.0001) %MON dynstat_theta_mean           =   5.6539481262047E-01
(PID.TID 0000.0001) %MON dynstat_theta_sd             =   8.4904355838574E-01
(PID.TID 0000.0001) %MON dynstat_theta_del2           =   9.0008405728144E-07
(PID.TID 0000.0001) %MON dynstat_salt_max             =   3.4700000000000E+01
(PID.TID 0000.0001) %MON dynstat_salt_min             =   3.4000000000000E+01
(PID.TID 0000.0001) %MON dynstat_salt_mean            =   3.4498071504899E+01
(PID.TID 0000.0001) %MON dynstat_salt_sd              =   2.7015085437950E-01
(PID.TID 0000.0001) %MON dynstat_salt_del2            =   3.3576498434063E-07
(PID.TID 0000.0001) %MON advcfl_uvel_max              =   5.4155377506540E-04
(PID.TID 0000.0001) %MON advcfl_vvel_max              =   5.4418640097891E-04
(PID.TID 0000.0001) %MON advcfl_wvel_max              =   9.8663055223485E-04
(PID.TID 0000.0001) %MON advcfl_W_hf_max              =   9.8663055223485E-04
(PID.TID 0000.0001) %MON pe_b_mean                    =  -6.8273179601003E-01
(PID.TID 0000.0001) %MON ke_max                       =   9.2333238791251E-06
(PID.TID 0000.0001) %MON ke_mean                      =   2.2430905750897E-08
(PID.TID 0000.0001) %MON ke_vol                       =   4.6182912234746E+12
(PID.TID 0000.0001) // =======================================================
(PID.TID 0000.0001) // End MONITOR dynamic field statistics
(PID.TID 0000.0001) // =======================================================
(PID.TID 0000.0001) // =======================================================
(PID.TID 0000.0001) // Begin OBCS MONITOR field statistics
(PID.TID 0000.0001) // =======================================================
(PID.TID 0000.0001) %MON obc_N_vVel_max               =  -6.6075922645218E-08
(PID.TID 0000.0001) %MON obc_N_vVel_min               =  -6.6075922645219E-08
(PID.TID 0000.0001) %MON obc_N_vVel_mean              =  -6.6075922645218E-08
(PID.TID 0000.0001) %MON obc_N_vVel_sd                =   1.3203721447147E-14
(PID.TID 0000.0001) %MON obc_N_vVel_Int               =  -4.3610108945844E+00
(PID.TID 0000.0001) // =======================================================
(PID.TID 0000.0001) // End OBCS MONITOR field statistics
(PID.TID 0000.0001) // =======================================================
 cg2d: Sum(rhs),rhsMax =   3.01165834709633E+00  4.53049974168024E+02
(PID.TID 0000.0001)      cg2d_init_res =   1.36671745267931E-06
(PID.TID 0000.0001)      cg2d_iters(min,last) =      -1      70
(PID.TID 0000.0001)      cg2d_last_res =   8.61855481431311E-12
(PID.TID 0000.0001) // =======================================================
(PID.TID 0000.0001) // Begin MONITOR dynamic field statistics
(PID.TID 0000.0001) // =======================================================
(PID.TID 0000.0001) %MON time_tsnumber                =                   521
(PID.TID 0000.0001) %MON time_secondsf                =   5.2100000000000E+04
(PID.TID 0000.0001) %MON dynstat_eta_max              =   5.7969209406931E+00
(PID.TID 0000.0001) %MON dynstat_eta_min              =  -1.4175948040250E+01
(PID.TID 0000.0001) %MON dynstat_eta_mean             =  -2.5267254376943E+00
(PID.TID 0000.0001) %MON dynstat_eta_sd               =   4.9418659459543E+00
(PID.TID 0000.0001) %MON dynstat_eta_del2             =   1.9058106879434E-01
(PID.TID 0000.0001) %MON dynstat_uvel_max             =   2.1928832298439E-03
(PID.TID 0000.0001) %MON dynstat_uvel_min             =  -5.4331105807242E-03
(PID.TID 0000.0001) %MON dynstat_uvel_mean            =  -1.9177490352903E-09
(PID.TID 0000.0001) %MON dynstat_uvel_sd              =   1.7842386645725E-04
(PID.TID 0000.0001) %MON dynstat_uvel_del2            =   3.1452199880270E-07
(PID.TID 0000.0001) %MON dynstat_vvel_max             =   5.4553862879134E-03
(PID.TID 0000.0001) %MON dynstat_vvel_min             =  -1.9173193219268E-03
(PID.TID 0000.0001) %MON dynstat_vvel_mean            =  -5.4087860831284E-08
(PID.TID 0000.0001) %MON dynstat_vvel_sd              =   1.1749083056614E-04
(PID.TID 0000.0001) %MON dynstat_vvel_del2            =   3.1277699399118E-07
(PID.TID 0000.0001) %MON dynstat_wvel_max             =   1.7860233116885E-04
(PID.TID 0000.0001) %MON dynstat_wvel_min             =  -1.9802394852274E-04
(PID.TID 0000.0001) %MON dynstat_wvel_mean            =   1.5155284361057E-10
(PID.TID 0000.0001) %MON dynstat_wvel_sd              =   1.1509313961292E-05
(PID.TID 0000.0001) %MON dynstat_wvel_del2            =   5.1750153087255E-08
(PID.TID 0000.0001) %MON dynstat_theta_max            =   1.2000000000000E+00
(PID.TID 0000.0001) %MON dynstat_theta_min            =  -1.0000000000000E+00
(PID.TID 0000.0001) %MON dynstat_theta_mean           =   5.6539456264689E-01
(PID.TID 0000.0001) %MON dynstat_theta_sd             =   8.4904348653706E-01
(PID.TID 0000.0001) %MON dynstat_theta_del2           =   9.0055750322950E-07
(PID.TID 0000.0001) %MON dynstat_salt_max             =   3.4700000000000E+01
(PID.TID 0000.0001) %MON dynstat_salt_min             =   3.4000000000000E+01
(PID.TID 0000.0001) %MON dynstat_salt_mean            =   3.4498071405594E+01
(PID.TID 0000.0001) %MON dynstat_salt_sd              =   2.7015083055023E-01
(PID.TID 0000.0001) %MON dynstat_salt_del2            =   3.3612844411310E-07
(PID.TID 0000.0001) %MON advcfl_uvel_max              =   5.4331105807242E-04
(PID.TID 0000.0001) %MON advcfl_vvel_max              =   5.4553862879134E-04
(PID.TID 0000.0001) %MON advcfl_wvel_max              =   9.9011974261369E-04
(PID.TID 0000.0001) %MON advcfl_W_hf_max              =   9.9011974261369E-04
(PID.TID 0000.0001) %MON pe_b_mean                    =  -6.8273116857083E-01
(PID.TID 0000.0001) %MON ke_max                       =   9.2907079349439E-06
(PID.TID 0000.0001) %MON ke_mean                      =   2.2520144078882E-08
(PID.TID 0000.0001) %MON ke_vol                       =   4.6182912371823E+12
(PID.TID 0000.0001) // =======================================================
(PID.TID 0000.0001) // End MONITOR dynamic field statistics
(PID.TID 0000.0001) // =======================================================
(PID.TID 0000.0001) // =======================================================
(PID.TID 0000.0001) // Begin OBCS MONITOR field statistics
(PID.TID 0000.0001) // =======================================================
(PID.TID 0000.0001) %MON obc_N_vVel_max               =  -6.5532477686606E-08
(PID.TID 0000.0001) %MON obc_N_vVel_min               =  -6.5532477686607E-08
(PID.TID 0000.0001) %MON obc_N_vVel_mean              =  -6.5532477686606E-08
(PID.TID 0000.0001) %MON obc_N_vVel_sd                =   8.2843767873165E-15
(PID.TID 0000.0001) %MON obc_N_vVel_Int               =  -4.3251435273160E+00
(PID.TID 0000.0001) // =======================================================
(PID.TID 0000.0001) // End OBCS MONITOR field statistics
(PID.TID 0000.0001) // =======================================================
 cg2d: Sum(rhs),rhsMax =   3.01165565839625E+00  4.53049964209596E+02
(PID.TID 0000.0001)      cg2d_init_res =   1.37021797295162E-06
(PID.TID 0000.0001)      cg2d_iters(min,last) =      -1      70
(PID.TID 0000.0001)      cg2d_last_res =   8.65751868946653E-12
(PID.TID 0000.0001) // =======================================================
(PID.TID 0000.0001) // Begin MONITOR dynamic field statistics
(PID.TID 0000.0001) // =======================================================
(PID.TID 0000.0001) %MON time_tsnumber                =                   522
(PID.TID 0000.0001) %MON time_secondsf                =   5.2200000000000E+04
(PID.TID 0000.0001) %MON dynstat_eta_max              =   5.7969236404873E+00
(PID.TID 0000.0001) %MON dynstat_eta_min              =  -1.4175942253297E+01
(PID.TID 0000.0001) %MON dynstat_eta_mean             =  -2.5267231263853E+00
(PID.TID 0000.0001) %MON dynstat_eta_sd               =   4.9418652210715E+00
(PID.TID 0000.0001) %MON dynstat_eta_del2             =   1.9058107257846E-01
(PID.TID 0000.0001) %MON dynstat_uvel_max             =   2.1963713089104E-03
(PID.TID 0000.0001) %MON dynstat_uvel_min             =  -5.4507251928850E-03
(PID.TID 0000.0001) %MON dynstat_uvel_mean            =  -1.9054842173201E-09
(PID.TID 0000.0001) %MON dynstat_uvel_sd              =   1.7876174926046E-04
(PID.TID 0000.0001) %MON dynstat_uvel_del2            =   3.1498820204903E-07
(PID.TID 0000.0001) %MON dynstat_vvel_max             =   5.4689231611906E-03
(PID.TID 0000.0001) %MON dynstat_vvel_min             =  -1.9146543044100E-03
(PID.TID 0000.0001) %MON dynstat_vvel_mean            =  -5.3816985782868E-08
(PID.TID 0000.0001) %MON dynstat_vvel_sd              =   1.1776924128832E-04
(PID.TID 0000.0001) %MON dynstat_vvel_del2            =   3.1347251567565E-07
(PID.TID 0000.0001) %MON dynstat_wvel_max             =   1.7940994594982E-04
(PID.TID 0000.0001) %MON dynstat_wvel_min             =  -1.9872257322796E-04
(PID.TID 0000.0001) %MON dynstat_wvel_mean            =   1.5022992341610E-10
(PID.TID 0000.0001) %MON dynstat_wvel_sd              =   1.1726520374676E-05
(PID.TID 0000.0001) %MON dynstat_wvel_del2            =   5.1955527841461E-08
(PID.TID 0000.0001) %MON dynstat_theta_max            =   1.2000000000000E+00
(PID.TID 0000.0001) %MON dynstat_theta_min            =  -1.0000000000000E+00
(PID.TID 0000.0001) %MON dynstat_theta_mean           =   5.6539431233975E-01
(PID.TID 0000.0001) %MON dynstat_theta_sd             =   8.4904341452836E-01
(PID.TID 0000.0001) %MON dynstat_theta_del2           =   9.0088317556915E-07
(PID.TID 0000.0001) %MON dynstat_salt_max             =   3.4700000000000E+01
(PID.TID 0000.0001) %MON dynstat_salt_min             =   3.4000000000000E+01
(PID.TID 0000.0001) %MON dynstat_salt_mean            =   3.4498071306161E+01
(PID.TID 0000.0001) %MON dynstat_salt_sd              =   2.7015080665662E-01
(PID.TID 0000.0001) %MON dynstat_salt_del2            =   3.3645224898452E-07
(PID.TID 0000.0001) %MON advcfl_uvel_max              =   5.4507251928850E-04
(PID.TID 0000.0001) %MON advcfl_vvel_max              =   5.4689231611906E-04
(PID.TID 0000.0001) %MON advcfl_wvel_max              =   9.9361286613981E-04
(PID.TID 0000.0001) %MON advcfl_W_hf_max              =   9.9361286613981E-04
(PID.TID 0000.0001) %MON pe_b_mean                    =  -6.8273054042020E-01
(PID.TID 0000.0001) %MON ke_max                       =   9.3484198638092E-06
(PID.TID 0000.0001) %MON ke_mean                      =   2.2612101557683E-08
(PID.TID 0000.0001) %MON ke_vol                       =   4.6182912509001E+12
(PID.TID 0000.0001) // =======================================================
(PID.TID 0000.0001) // End MONITOR dynamic field statistics
(PID.TID 0000.0001) // =======================================================
(PID.TID 0000.0001) // =======================================================
(PID.TID 0000.0001) // Begin OBCS MONITOR field statistics
(PID.TID 0000.0001) // =======================================================
(PID.TID 0000.0001) %MON obc_N_vVel_max               =  -6.5173975462788E-08
(PID.TID 0000.0001) %MON obc_N_vVel_min               =  -6.5173975462790E-08
(PID.TID 0000.0001) %MON obc_N_vVel_mean              =  -6.5173975462788E-08
(PID.TID 0000.0001) %MON obc_N_vVel_sd                =   1.2047838252594E-14
(PID.TID 0000.0001) %MON obc_N_vVel_Int               =  -4.3014823805440E+00
(PID.TID 0000.0001) // =======================================================
(PID.TID 0000.0001) // End OBCS MONITOR field statistics
(PID.TID 0000.0001) // =======================================================
 cg2d: Sum(rhs),rhsMax =   3.01165296719026E+00  4.53049954246906E+02
(PID.TID 0000.0001)      cg2d_init_res =   1.37503246828418E-06
(PID.TID 0000.0001)      cg2d_iters(min,last) =      -1      70
(PID.TID 0000.0001)      cg2d_last_res =   8.69539702414207E-12
(PID.TID 0000.0001) // =======================================================
(PID.TID 0000.0001) // Begin MONITOR dynamic field statistics
(PID.TID 0000.0001) // =======================================================
(PID.TID 0000.0001) %MON time_tsnumber                =                   523
(PID.TID 0000.0001) %MON time_secondsf                =   5.2300000000000E+04
(PID.TID 0000.0001) %MON dynstat_eta_max              =   5.7969263393306E+00
(PID.TID 0000.0001) %MON dynstat_eta_min              =  -1.4175936471255E+01
(PID.TID 0000.0001) %MON dynstat_eta_mean             =  -2.5267208129502E+00
(PID.TID 0000.0001) %MON dynstat_eta_sd               =   4.9418644953578E+00
(PID.TID 0000.0001) %MON dynstat_eta_del2             =   1.9058107637026E-01
(PID.TID 0000.0001) %MON dynstat_uvel_max             =   2.1998676982786E-03
(PID.TID 0000.0001) %MON dynstat_uvel_min             =  -5.4683817258443E-03
(PID.TID 0000.0001) %MON dynstat_uvel_mean            =  -1.8928926855825E-09
(PID.TID 0000.0001) %MON dynstat_uvel_sd              =   1.7909978361275E-04
(PID.TID 0000.0001) %MON dynstat_uvel_del2            =   3.1545772261893E-07
(PID.TID 0000.0001) %MON dynstat_vvel_max             =   5.4824747238733E-03
(PID.TID 0000.0001) %MON dynstat_vvel_min             =  -1.9119497517437E-03
(PID.TID 0000.0001) %MON dynstat_vvel_mean            =  -5.3760901722187E-08
(PID.TID 0000.0001) %MON dynstat_vvel_sd              =   1.1806205616601E-04
(PID.TID 0000.0001) %MON dynstat_vvel_del2            =   3.1423206253159E-07
(PID.TID 0000.0001) %MON dynstat_wvel_max             =   1.8021932075693E-04
(PID.TID 0000.0001) %MON dynstat_wvel_min             =  -1.9942198160993E-04
(PID.TID 0000.0001) %MON dynstat_wvel_mean            =   1.4886379687874E-10
(PID.TID 0000.0001) %MON dynstat_wvel_sd              =   1.1966852010755E-05
(PID.TID 0000.0001) %MON dynstat_wvel_del2            =   5.2304470548878E-08
(PID.TID 0000.0001) %MON dynstat_theta_max            =   1.2000000000000E+00
(PID.TID 0000.0001) %MON dynstat_theta_min            =  -1.0000000000000E+00
(PID.TID 0000.0001) %MON dynstat_theta_mean           =   5.6539406170802E-01
(PID.TID 0000.0001) %MON dynstat_theta_sd             =   8.4904334235508E-01
(PID.TID 0000.0001) %MON dynstat_theta_del2           =   9.0108248786951E-07
(PID.TID 0000.0001) %MON dynstat_salt_max             =   3.4700000000000E+01
(PID.TID 0000.0001) %MON dynstat_salt_min             =   3.4000000000000E+01
(PID.TID 0000.0001) %MON dynstat_salt_mean            =   3.4498071206603E+01
(PID.TID 0000.0001) %MON dynstat_salt_sd              =   2.7015078269700E-01
(PID.TID 0000.0001) %MON dynstat_salt_del2            =   3.3674228018574E-07
(PID.TID 0000.0001) %MON advcfl_uvel_max              =   5.4683817258443E-04
(PID.TID 0000.0001) %MON advcfl_vvel_max              =   5.4824747238733E-04
(PID.TID 0000.0001) %MON advcfl_wvel_max              =   9.9710990804964E-04
(PID.TID 0000.0001) %MON advcfl_W_hf_max              =   9.9710990804964E-04
(PID.TID 0000.0001) %MON pe_b_mean                    =  -6.8272991151251E-01
(PID.TID 0000.0001) %MON ke_max                       =   9.4064615469406E-06
(PID.TID 0000.0001) %MON ke_mean                      =   2.2705975632703E-08
(PID.TID 0000.0001) %MON ke_vol                       =   4.6182912646293E+12
(PID.TID 0000.0001) // =======================================================
(PID.TID 0000.0001) // End MONITOR dynamic field statistics
(PID.TID 0000.0001) // =======================================================
(PID.TID 0000.0001) // =======================================================
(PID.TID 0000.0001) // Begin OBCS MONITOR field statistics
(PID.TID 0000.0001) // =======================================================
(PID.TID 0000.0001) %MON obc_N_vVel_max               =  -6.5009131864580E-08
(PID.TID 0000.0001) %MON obc_N_vVel_min               =  -6.5009131864582E-08
(PID.TID 0000.0001) %MON obc_N_vVel_mean              =  -6.5009131864580E-08
(PID.TID 0000.0001) %MON obc_N_vVel_sd                =   1.9979079509373E-14
(PID.TID 0000.0001) %MON obc_N_vVel_Int               =  -4.2906027030623E+00
(PID.TID 0000.0001) // =======================================================
(PID.TID 0000.0001) // End OBCS MONITOR field statistics
(PID.TID 0000.0001) // =======================================================
 cg2d: Sum(rhs),rhsMax =   3.01165027316720E+00  4.53049944287762E+02
(PID.TID 0000.0001)      cg2d_init_res =   1.38094240284603E-06
(PID.TID 0000.0001)      cg2d_iters(min,last) =      -1      70
(PID.TID 0000.0001)      cg2d_last_res =   8.72994787055848E-12
(PID.TID 0000.0001) // =======================================================
(PID.TID 0000.0001) // Begin MONITOR dynamic field statistics
(PID.TID 0000.0001) // =======================================================
(PID.TID 0000.0001) %MON time_tsnumber                =                   524
(PID.TID 0000.0001) %MON time_secondsf                =   5.2400000000000E+04
(PID.TID 0000.0001) %MON dynstat_eta_max              =   5.7969290376201E+00
(PID.TID 0000.0001) %MON dynstat_eta_min              =  -1.4175930693764E+01
(PID.TID 0000.0001) %MON dynstat_eta_mean             =  -2.5267184971715E+00
(PID.TID 0000.0001) %MON dynstat_eta_sd               =   4.9418637687406E+00
(PID.TID 0000.0001) %MON dynstat_eta_del2             =   1.9058108016953E-01
(PID.TID 0000.0001) %MON dynstat_uvel_max             =   2.2033724285890E-03
(PID.TID 0000.0001) %MON dynstat_uvel_min             =  -5.4860803186605E-03
(PID.TID 0000.0001) %MON dynstat_uvel_mean            =  -1.8802813624962E-09
(PID.TID 0000.0001) %MON dynstat_uvel_sd              =   1.7943801514100E-04
(PID.TID 0000.0001) %MON dynstat_uvel_del2            =   3.1593066804658E-07
(PID.TID 0000.0001) %MON dynstat_vvel_max             =   5.4960410712479E-03
(PID.TID 0000.0001) %MON dynstat_vvel_min             =  -1.9092057841323E-03
(PID.TID 0000.0001) %MON dynstat_vvel_mean            =  -5.3917677857189E-08
(PID.TID 0000.0001) %MON dynstat_vvel_sd              =   1.1836158663060E-04
(PID.TID 0000.0001) %MON dynstat_vvel_del2            =   3.1503739387668E-07
(PID.TID 0000.0001) %MON dynstat_wvel_max             =   1.8103045782484E-04
(PID.TID 0000.0001) %MON dynstat_wvel_min             =  -2.0012217073365E-04
(PID.TID 0000.0001) %MON dynstat_wvel_mean            =   1.4750266060872E-10
(PID.TID 0000.0001) %MON dynstat_wvel_sd              =   1.2218464668338E-05
(PID.TID 0000.0001) %MON dynstat_wvel_del2            =   5.2775733015621E-08
(PID.TID 0000.0001) %MON dynstat_theta_max            =   1.2000000000000E+00
(PID.TID 0000.0001) %MON dynstat_theta_min            =  -1.0000000000000E+00
(PID.TID 0000.0001) %MON dynstat_theta_mean           =   5.6539381076116E-01
(PID.TID 0000.0001) %MON dynstat_theta_sd             =   8.4904327001929E-01
(PID.TID 0000.0001) %MON dynstat_theta_del2           =   9.0118288299083E-07
(PID.TID 0000.0001) %MON dynstat_salt_max             =   3.4700000000000E+01
(PID.TID 0000.0001) %MON dynstat_salt_min             =   3.4000000000000E+01
(PID.TID 0000.0001) %MON dynstat_salt_mean            =   3.4498071106925E+01
(PID.TID 0000.0001) %MON dynstat_salt_sd              =   2.7015075867218E-01
(PID.TID 0000.0001) %MON dynstat_salt_del2            =   3.3700603600037E-07
(PID.TID 0000.0001) %MON advcfl_uvel_max              =   5.4860803186605E-04
(PID.TID 0000.0001) %MON advcfl_vvel_max              =   5.4960410712479E-04
(PID.TID 0000.0001) %MON advcfl_wvel_max              =   1.0006108536682E-03
(PID.TID 0000.0001) %MON advcfl_W_hf_max              =   1.0006108536682E-03
(PID.TID 0000.0001) %MON pe_b_mean                    =  -6.8272928180288E-01
(PID.TID 0000.0001) %MON ke_max                       =   9.4648348771566E-06
(PID.TID 0000.0001) %MON ke_mean                      =   2.2800877110375E-08
(PID.TID 0000.0001) %MON ke_vol                       =   4.6182912783711E+12
(PID.TID 0000.0001) // =======================================================
(PID.TID 0000.0001) // End MONITOR dynamic field statistics
(PID.TID 0000.0001) // =======================================================
(PID.TID 0000.0001) // =======================================================
(PID.TID 0000.0001) // Begin OBCS MONITOR field statistics
(PID.TID 0000.0001) // =======================================================
(PID.TID 0000.0001) %MON obc_N_vVel_max               =  -6.5040273139079E-08
(PID.TID 0000.0001) %MON obc_N_vVel_min               =  -6.5040273139080E-08
(PID.TID 0000.0001) %MON obc_N_vVel_mean              =  -6.5040273139080E-08
(PID.TID 0000.0001) %MON obc_N_vVel_sd                =  -1.1832913578315E-28
(PID.TID 0000.0001) %MON obc_N_vVel_Int               =  -4.2926580271793E+00
(PID.TID 0000.0001) // =======================================================
(PID.TID 0000.0001) // End OBCS MONITOR field statistics
(PID.TID 0000.0001) // =======================================================
 cg2d: Sum(rhs),rhsMax =   3.01164757601783E+00  4.53049934340390E+02
(PID.TID 0000.0001)      cg2d_init_res =   1.38768155569479E-06
(PID.TID 0000.0001)      cg2d_iters(min,last) =      -1      70
(PID.TID 0000.0001)      cg2d_last_res =   8.76195639755516E-12
(PID.TID 0000.0001) // =======================================================
(PID.TID 0000.0001) // Begin MONITOR dynamic field statistics
(PID.TID 0000.0001) // =======================================================
(PID.TID 0000.0001) %MON time_tsnumber                =                   525
(PID.TID 0000.0001) %MON time_secondsf                =   5.2500000000000E+04
(PID.TID 0000.0001) %MON dynstat_eta_max              =   5.7969317357279E+00
(PID.TID 0000.0001) %MON dynstat_eta_min              =  -1.4175924920487E+01
(PID.TID 0000.0001) %MON dynstat_eta_mean             =  -2.5267161788357E+00
(PID.TID 0000.0001) %MON dynstat_eta_sd               =   4.9418630411553E+00
(PID.TID 0000.0001) %MON dynstat_eta_del2             =   1.9058108397605E-01
(PID.TID 0000.0001) %MON dynstat_uvel_max             =   2.2068855299562E-03
(PID.TID 0000.0001) %MON dynstat_uvel_min             =  -5.5038211105245E-03
(PID.TID 0000.0001) %MON dynstat_uvel_mean            =  -1.8679673429081E-09
(PID.TID 0000.0001) %MON dynstat_uvel_sd              =   1.7977648724200E-04
(PID.TID 0000.0001) %MON dynstat_uvel_del2            =   3.1640714219426E-07
(PID.TID 0000.0001) %MON dynstat_vvel_max             =   5.5096222998408E-03
(PID.TID 0000.0001) %MON dynstat_vvel_min             =  -1.9064225194363E-03
(PID.TID 0000.0001) %MON dynstat_vvel_mean            =  -5.4278507133398E-08
(PID.TID 0000.0001) %MON dynstat_vvel_sd              =   1.1865980612824E-04
(PID.TID 0000.0001) %MON dynstat_vvel_del2            =   3.1586802023224E-07
(PID.TID 0000.0001) %MON dynstat_wvel_max             =   1.8184335946498E-04
(PID.TID 0000.0001) %MON dynstat_wvel_min             =  -2.0082313775901E-04
(PID.TID 0000.0001) %MON dynstat_wvel_mean            =   1.4619363893635E-10
(PID.TID 0000.0001) %MON dynstat_wvel_sd              =   1.2469483811789E-05
(PID.TID 0000.0001) %MON dynstat_wvel_del2            =   5.3342234453744E-08
(PID.TID 0000.0001) %MON dynstat_theta_max            =   1.2000000000000E+00
(PID.TID 0000.0001) %MON dynstat_theta_min            =  -1.0000000000000E+00
(PID.TID 0000.0001) %MON dynstat_theta_mean           =   5.6539355950890E-01
(PID.TID 0000.0001) %MON dynstat_theta_sd             =   8.4904319752419E-01
(PID.TID 0000.0001) %MON dynstat_theta_del2           =   9.0121693081334E-07
(PID.TID 0000.0001) %MON dynstat_salt_max             =   3.4700000000000E+01
(PID.TID 0000.0001) %MON dynstat_salt_min             =   3.4000000000000E+01
(PID.TID 0000.0001) %MON dynstat_salt_mean            =   3.4498071007128E+01
(PID.TID 0000.0001) %MON dynstat_salt_sd              =   2.7015073458303E-01
(PID.TID 0000.0001) %MON dynstat_salt_del2            =   3.3725238377312E-07
(PID.TID 0000.0001) %MON advcfl_uvel_max              =   5.5038211105245E-04
(PID.TID 0000.0001) %MON advcfl_vvel_max              =   5.5096222998408E-04
(PID.TID 0000.0001) %MON advcfl_wvel_max              =   1.0041156887950E-03
(PID.TID 0000.0001) %MON advcfl_W_hf_max              =   1.0041156887950E-03
(PID.TID 0000.0001) %MON pe_b_mean                    =  -6.8272865124859E-01
(PID.TID 0000.0001) %MON ke_max                       =   9.5235417583446E-06
(PID.TID 0000.0001) %MON ke_mean                      =   2.2895867446223E-08
(PID.TID 0000.0001) %MON ke_vol                       =   4.6182912921268E+12
(PID.TID 0000.0001) // =======================================================
(PID.TID 0000.0001) // End MONITOR dynamic field statistics
(PID.TID 0000.0001) // =======================================================
(PID.TID 0000.0001) // =======================================================
(PID.TID 0000.0001) // Begin OBCS MONITOR field statistics
(PID.TID 0000.0001) // =======================================================
(PID.TID 0000.0001) %MON obc_N_vVel_max               =  -6.5263321058868E-08
(PID.TID 0000.0001) %MON obc_N_vVel_min               =  -6.5263321058870E-08
(PID.TID 0000.0001) %MON obc_N_vVel_mean              =  -6.5263321058870E-08
(PID.TID 0000.0001) %MON obc_N_vVel_sd                =  -3.1633322299363E-28
(PID.TID 0000.0001) %MON obc_N_vVel_Int               =  -4.3073791898854E+00
(PID.TID 0000.0001) // =======================================================
(PID.TID 0000.0001) // End OBCS MONITOR field statistics
(PID.TID 0000.0001) // =======================================================
 cg2d: Sum(rhs),rhsMax =   3.01164487544473E+00  4.53049924413208E+02
(PID.TID 0000.0001)      cg2d_init_res =   1.39494908606264E-06
(PID.TID 0000.0001)      cg2d_iters(min,last) =      -1      70
(PID.TID 0000.0001)      cg2d_last_res =   8.79399253940993E-12
(PID.TID 0000.0001) // =======================================================
(PID.TID 0000.0001) // Begin MONITOR dynamic field statistics
(PID.TID 0000.0001) // =======================================================
(PID.TID 0000.0001) %MON time_tsnumber                =                   526
(PID.TID 0000.0001) %MON time_secondsf                =   5.2600000000000E+04
(PID.TID 0000.0001) %MON dynstat_eta_max              =   5.7969344339889E+00
(PID.TID 0000.0001) %MON dynstat_eta_min              =  -1.4175919151126E+01
(PID.TID 0000.0001) %MON dynstat_eta_mean             =  -2.5267138577401E+00
(PID.TID 0000.0001) %MON dynstat_eta_sd               =   4.9418623125482E+00
(PID.TID 0000.0001) %MON dynstat_eta_del2             =   1.9058108778973E-01
(PID.TID 0000.0001) %MON dynstat_uvel_max             =   2.2104070319884E-03
(PID.TID 0000.0001) %MON dynstat_uvel_min             =  -5.5216042409434E-03
(PID.TID 0000.0001) %MON dynstat_uvel_mean            =  -1.8562682030392E-09
(PID.TID 0000.0001) %MON dynstat_uvel_sd              =   1.8011523970620E-04
(PID.TID 0000.0001) %MON dynstat_uvel_del2            =   3.1688723977870E-07
(PID.TID 0000.0001) %MON dynstat_vvel_max             =   5.5232185072784E-03
(PID.TID 0000.0001) %MON dynstat_vvel_min             =  -1.9036000737787E-03
(PID.TID 0000.0001) %MON dynstat_vvel_mean            =  -5.4828119688183E-08
(PID.TID 0000.0001) %MON dynstat_vvel_sd              =   1.1894869708461E-04
(PID.TID 0000.0001) %MON dynstat_vvel_del2            =   3.1670203525490E-07
(PID.TID 0000.0001) %MON dynstat_wvel_max             =   1.8265802803705E-04
(PID.TID 0000.0001) %MON dynstat_wvel_min             =  -2.0152487995142E-04
(PID.TID 0000.0001) %MON dynstat_wvel_mean            =   1.4498131290313E-10
(PID.TID 0000.0001) %MON dynstat_wvel_sd              =   1.2708516347795E-05
(PID.TID 0000.0001) %MON dynstat_wvel_del2            =   5.3972626138825E-08
(PID.TID 0000.0001) %MON dynstat_theta_max            =   1.2000000000000E+00
(PID.TID 0000.0001) %MON dynstat_theta_min            =  -1.0000000000000E+00
(PID.TID 0000.0001) %MON dynstat_theta_mean           =   5.6539330796124E-01
(PID.TID 0000.0001) %MON dynstat_theta_sd             =   8.4904312485189E-01
(PID.TID 0000.0001) %MON dynstat_theta_del2           =   9.0122124398634E-07
(PID.TID 0000.0001) %MON dynstat_salt_max             =   3.4700000000000E+01
(PID.TID 0000.0001) %MON dynstat_salt_min             =   3.4000000000000E+01
(PID.TID 0000.0001) %MON dynstat_salt_mean            =   3.4498070907215E+01
(PID.TID 0000.0001) %MON dynstat_salt_sd              =   2.7015071042398E-01
(PID.TID 0000.0001) %MON dynstat_salt_del2            =   3.3749126444881E-07
(PID.TID 0000.0001) %MON advcfl_uvel_max              =   5.5216042409434E-04
(PID.TID 0000.0001) %MON advcfl_vvel_max              =   5.5232185072784E-04
(PID.TID 0000.0001) %MON advcfl_wvel_max              =   1.0076243997571E-03
(PID.TID 0000.0001) %MON advcfl_W_hf_max              =   1.0076243997571E-03
(PID.TID 0000.0001) %MON pe_b_mean                    =  -6.8272801981055E-01
(PID.TID 0000.0001) %MON ke_max                       =   9.5825841056016E-06
(PID.TID 0000.0001) %MON ke_mean                      =   2.2989999058230E-08
(PID.TID 0000.0001) %MON ke_vol                       =   4.6182913058977E+12
(PID.TID 0000.0001) // =======================================================
(PID.TID 0000.0001) // End MONITOR dynamic field statistics
(PID.TID 0000.0001) // =======================================================
(PID.TID 0000.0001) // =======================================================
(PID.TID 0000.0001) // Begin OBCS MONITOR field statistics
(PID.TID 0000.0001) // =======================================================
(PID.TID 0000.0001) %MON obc_N_vVel_max               =  -6.5668047315758E-08
(PID.TID 0000.0001) %MON obc_N_vVel_min               =  -6.5668047315759E-08
(PID.TID 0000.0001) %MON obc_N_vVel_mean              =  -6.5668047315759E-08
(PID.TID 0000.0001) %MON obc_N_vVel_sd                =  -1.0255191767873E-29
(PID.TID 0000.0001) %MON obc_N_vVel_Int               =  -4.3340911228401E+00
(PID.TID 0000.0001) // =======================================================
(PID.TID 0000.0001) // End OBCS MONITOR field statistics
(PID.TID 0000.0001) // =======================================================
 cg2d: Sum(rhs),rhsMax =   3.01164217117230E+00  4.53049914514638E+02
(PID.TID 0000.0001)      cg2d_init_res =   1.40242397924842E-06
(PID.TID 0000.0001)      cg2d_iters(min,last) =      -1      70
(PID.TID 0000.0001)      cg2d_last_res =   8.82796129785671E-12
(PID.TID 0000.0001) // =======================================================
(PID.TID 0000.0001) // Begin MONITOR dynamic field statistics
(PID.TID 0000.0001) // =======================================================
(PID.TID 0000.0001) %MON time_tsnumber                =                   527
(PID.TID 0000.0001) %MON time_secondsf                =   5.2700000000000E+04
(PID.TID 0000.0001) %MON dynstat_eta_max              =   5.7969371327054E+00
(PID.TID 0000.0001) %MON dynstat_eta_min              =  -1.4175913385407E+01
(PID.TID 0000.0001) %MON dynstat_eta_mean             =  -2.5267115337005E+00
(PID.TID 0000.0001) %MON dynstat_eta_sd               =   4.9418615828758E+00
(PID.TID 0000.0001) %MON dynstat_eta_del2             =   1.9058109161049E-01
(PID.TID 0000.0001) %MON dynstat_uvel_max             =   2.2139369638587E-03
(PID.TID 0000.0001) %MON dynstat_uvel_min             =  -5.5394298499802E-03
(PID.TID 0000.0001) %MON dynstat_uvel_mean            =  -1.8454780111387E-09
(PID.TID 0000.0001) %MON dynstat_uvel_sd              =   1.8045430742236E-04
(PID.TID 0000.0001) %MON dynstat_uvel_del2            =   3.1737104099717E-07
(PID.TID 0000.0001) %MON dynstat_vvel_max             =   5.5368297920921E-03
(PID.TID 0000.0001) %MON dynstat_vvel_min             =  -1.9007385617238E-03
(PID.TID 0000.0001) %MON dynstat_vvel_mean            =  -5.5545417033384E-08
(PID.TID 0000.0001) %MON dynstat_vvel_sd              =   1.1922059861771E-04
(PID.TID 0000.0001) %MON dynstat_vvel_del2            =   3.1751701576634E-07
(PID.TID 0000.0001) %MON dynstat_wvel_max             =   1.8347446590627E-04
(PID.TID 0000.0001) %MON dynstat_wvel_min             =  -2.0222739463685E-04
(PID.TID 0000.0001) %MON dynstat_wvel_mean            =   1.4390641541040E-10
(PID.TID 0000.0001) %MON dynstat_wvel_sd              =   1.2925035160716E-05
(PID.TID 0000.0001) %MON dynstat_wvel_del2            =   5.4632932065763E-08
(PID.TID 0000.0001) %MON dynstat_theta_max            =   1.2000000000000E+00
(PID.TID 0000.0001) %MON dynstat_theta_min            =  -1.0000000000000E+00
(PID.TID 0000.0001) %MON dynstat_theta_mean           =   5.6539305612833E-01
(PID.TID 0000.0001) %MON dynstat_theta_sd             =   8.4904305199923E-01
(PID.TID 0000.0001) %MON dynstat_theta_del2           =   9.0123474915701E-07
(PID.TID 0000.0001) %MON dynstat_salt_max             =   3.4700000000000E+01
(PID.TID 0000.0001) %MON dynstat_salt_min             =   3.4000000000000E+01
(PID.TID 0000.0001) %MON dynstat_salt_mean            =   3.4498070807192E+01
(PID.TID 0000.0001) %MON dynstat_salt_sd              =   2.7015068619392E-01
(PID.TID 0000.0001) %MON dynstat_salt_del2            =   3.3773320477893E-07
(PID.TID 0000.0001) %MON advcfl_uvel_max              =   5.5394298499802E-04
(PID.TID 0000.0001) %MON advcfl_vvel_max              =   5.5368297920921E-04
(PID.TID 0000.0001) %MON advcfl_wvel_max              =   1.0111369731843E-03
(PID.TID 0000.0001) %MON advcfl_W_hf_max              =   1.0111369731843E-03
(PID.TID 0000.0001) %MON pe_b_mean                    =  -6.8272738745461E-01
(PID.TID 0000.0001) %MON ke_max                       =   9.6419638464712E-06
(PID.TID 0000.0001) %MON ke_mean                      =   2.3082356984283E-08
(PID.TID 0000.0001) %MON ke_vol                       =   4.6182913196850E+12
(PID.TID 0000.0001) // =======================================================
(PID.TID 0000.0001) // End MONITOR dynamic field statistics
(PID.TID 0000.0001) // =======================================================
(PID.TID 0000.0001) // =======================================================
(PID.TID 0000.0001) // Begin OBCS MONITOR field statistics
(PID.TID 0000.0001) // =======================================================
(PID.TID 0000.0001) %MON obc_N_vVel_max               =  -6.6238532518340E-08
(PID.TID 0000.0001) %MON obc_N_vVel_min               =  -6.6238532518340E-08
(PID.TID 0000.0001) %MON obc_N_vVel_mean              =  -6.6238532518340E-08
(PID.TID 0000.0001) %MON obc_N_vVel_sd                =  -1.4199496293978E-28
(PID.TID 0000.0001) %MON obc_N_vVel_Int               =  -4.3717431462104E+00
(PID.TID 0000.0001) // =======================================================
(PID.TID 0000.0001) // End OBCS MONITOR field statistics
(PID.TID 0000.0001) // =======================================================
 cg2d: Sum(rhs),rhsMax =   3.01163946295335E+00  4.53049904652919E+02
(PID.TID 0000.0001)      cg2d_init_res =   1.40976168214280E-06
(PID.TID 0000.0001)      cg2d_iters(min,last) =      -1      70
(PID.TID 0000.0001)      cg2d_last_res =   8.86321131523541E-12
(PID.TID 0000.0001) // =======================================================
(PID.TID 0000.0001) // Begin MONITOR dynamic field statistics
(PID.TID 0000.0001) // =======================================================
(PID.TID 0000.0001) %MON time_tsnumber                =                   528
(PID.TID 0000.0001) %MON time_secondsf                =   5.2800000000000E+04
(PID.TID 0000.0001) %MON dynstat_eta_max              =   5.7969398321349E+00
(PID.TID 0000.0001) %MON dynstat_eta_min              =  -1.4175907623146E+01
(PID.TID 0000.0001) %MON dynstat_eta_mean             =  -2.5267092065555E+00
(PID.TID 0000.0001) %MON dynstat_eta_sd               =   4.9418608521066E+00
(PID.TID 0000.0001) %MON dynstat_eta_del2             =   1.9058109543823E-01
(PID.TID 0000.0001) %MON dynstat_uvel_max             =   2.2174753545556E-03
(PID.TID 0000.0001) %MON dynstat_uvel_min             =  -5.5572980773437E-03
(PID.TID 0000.0001) %MON dynstat_uvel_mean            =  -1.8358485743560E-09
(PID.TID 0000.0001) %MON dynstat_uvel_sd              =   1.8079371922244E-04
(PID.TID 0000.0001) %MON dynstat_uvel_del2            =   3.1785860653185E-07
(PID.TID 0000.0001) %MON dynstat_vvel_max             =   5.5504562536217E-03
(PID.TID 0000.0001) %MON dynstat_vvel_min             =  -1.8978380970420E-03
(PID.TID 0000.0001) %MON dynstat_vvel_mean            =  -5.6404236414144E-08
(PID.TID 0000.0001) %MON dynstat_vvel_sd              =   1.1946854047034E-04
(PID.TID 0000.0001) %MON dynstat_vvel_del2            =   3.1829095789023E-07
(PID.TID 0000.0001) %MON dynstat_wvel_max             =   1.8429267553202E-04
(PID.TID 0000.0001) %MON dynstat_wvel_min             =  -2.0293067909327E-04
(PID.TID 0000.0001) %MON dynstat_wvel_mean            =   1.4300472429511E-10
(PID.TID 0000.0001) %MON dynstat_wvel_sd              =   1.3109656245496E-05
(PID.TID 0000.0001) %MON dynstat_wvel_del2            =   5.5288134129765E-08
(PID.TID 0000.0001) %MON dynstat_theta_max            =   1.2000000000000E+00
(PID.TID 0000.0001) %MON dynstat_theta_min            =  -1.0000000000000E+00
(PID.TID 0000.0001) %MON dynstat_theta_mean           =   5.6539280402028E-01
(PID.TID 0000.0001) %MON dynstat_theta_sd             =   8.4904297896778E-01
(PID.TID 0000.0001) %MON dynstat_theta_del2           =   9.0129706381261E-07
(PID.TID 0000.0001) %MON dynstat_salt_max             =   3.4700000000000E+01
(PID.TID 0000.0001) %MON dynstat_salt_min             =   3.4000000000000E+01
(PID.TID 0000.0001) %MON dynstat_salt_mean            =   3.4498070707059E+01
(PID.TID 0000.0001) %MON dynstat_salt_sd              =   2.7015066189329E-01
(PID.TID 0000.0001) %MON dynstat_salt_del2            =   3.3798890253089E-07
(PID.TID 0000.0001) %MON advcfl_uvel_max              =   5.5572980773437E-04
(PID.TID 0000.0001) %MON advcfl_vvel_max              =   5.5504562536217E-04
(PID.TID 0000.0001) %MON advcfl_wvel_max              =   1.0146533954663E-03
(PID.TID 0000.0001) %MON advcfl_W_hf_max              =   1.0146533954663E-03
(PID.TID 0000.0001) %MON pe_b_mean                    =  -6.8272675415230E-01
(PID.TID 0000.0001) %MON ke_max                       =   9.7016829169950E-06
(PID.TID 0000.0001) %MON ke_mean                      =   2.3172100071647E-08
(PID.TID 0000.0001) %MON ke_vol                       =   4.6182913334898E+12
(PID.TID 0000.0001) // =======================================================
(PID.TID 0000.0001) // End MONITOR dynamic field statistics
(PID.TID 0000.0001) // =======================================================
(PID.TID 0000.0001) // =======================================================
(PID.TID 0000.0001) // Begin OBCS MONITOR field statistics
(PID.TID 0000.0001) // =======================================================
(PID.TID 0000.0001) %MON obc_N_vVel_max               =  -6.6953805077721E-08
(PID.TID 0000.0001) %MON obc_N_vVel_min               =  -6.6953805077721E-08
(PID.TID 0000.0001) %MON obc_N_vVel_mean              =  -6.6953805077721E-08
(PID.TID 0000.0001) %MON obc_N_vVel_sd                =  -7.0997481469891E-30
(PID.TID 0000.0001) %MON obc_N_vVel_Int               =  -4.4189511351296E+00
(PID.TID 0000.0001) // =======================================================
(PID.TID 0000.0001) // End OBCS MONITOR field statistics
(PID.TID 0000.0001) // =======================================================
 cg2d: Sum(rhs),rhsMax =   3.01163675057784E+00  4.53049894835891E+02
(PID.TID 0000.0001)      cg2d_init_res =   1.41662234617006E-06
(PID.TID 0000.0001)      cg2d_iters(min,last) =      -1      70
(PID.TID 0000.0001)      cg2d_last_res =   8.89713325823830E-12
(PID.TID 0000.0001) // =======================================================
(PID.TID 0000.0001) // Begin MONITOR dynamic field statistics
(PID.TID 0000.0001) // =======================================================
(PID.TID 0000.0001) %MON time_tsnumber                =                   529
(PID.TID 0000.0001) %MON time_secondsf                =   5.2900000000000E+04
(PID.TID 0000.0001) %MON dynstat_eta_max              =   5.7969425324761E+00
(PID.TID 0000.0001) %MON dynstat_eta_min              =  -1.4175901864210E+01
(PID.TID 0000.0001) %MON dynstat_eta_mean             =  -2.5267068761726E+00
(PID.TID 0000.0001) %MON dynstat_eta_sd               =   4.9418601202220E+00
(PID.TID 0000.0001) %MON dynstat_eta_del2             =   1.9058109927288E-01
(PID.TID 0000.0001) %MON dynstat_uvel_max             =   2.2210222322627E-03
(PID.TID 0000.0001) %MON dynstat_uvel_min             =  -5.5752090627079E-03
(PID.TID 0000.0001) %MON dynstat_uvel_mean            =  -1.8275725594324E-09
(PID.TID 0000.0001) %MON dynstat_uvel_sd              =   1.8113349691656E-04
(PID.TID 0000.0001) %MON dynstat_uvel_del2            =   3.1834997326441E-07
(PID.TID 0000.0001) %MON dynstat_vvel_max             =   5.5640979918377E-03
(PID.TID 0000.0001) %MON dynstat_vvel_min             =  -1.8948987927789E-03
(PID.TID 0000.0001) %MON dynstat_vvel_mean            =  -5.7374270670410E-08
(PID.TID 0000.0001) %MON dynstat_vvel_sd              =   1.1968654978310E-04
(PID.TID 0000.0001) %MON dynstat_vvel_del2            =   3.1900321776894E-07
(PID.TID 0000.0001) %MON dynstat_wvel_max             =   1.8511265945117E-04
(PID.TID 0000.0001) %MON dynstat_wvel_min             =  -2.0363473049211E-04
(PID.TID 0000.0001) %MON dynstat_wvel_mean            =   1.4230676923466E-10
(PID.TID 0000.0001) %MON dynstat_wvel_sd              =   1.3254335159947E-05
(PID.TID 0000.0001) %MON dynstat_wvel_del2            =   5.5903622474841E-08
(PID.TID 0000.0001) %MON dynstat_theta_max            =   1.2000000000000E+00
(PID.TID 0000.0001) %MON dynstat_theta_min            =  -1.0000000000000E+00
(PID.TID 0000.0001) %MON dynstat_theta_mean           =   5.6539255164716E-01
(PID.TID 0000.0001) %MON dynstat_theta_sd             =   8.4904290576803E-01
(PID.TID 0000.0001) %MON dynstat_theta_del2           =   9.0144671355755E-07
(PID.TID 0000.0001) %MON dynstat_salt_max             =   3.4700000000000E+01
(PID.TID 0000.0001) %MON dynstat_salt_min             =   3.4000000000000E+01
(PID.TID 0000.0001) %MON dynstat_salt_mean            =   3.4498070606821E+01
(PID.TID 0000.0001) %MON dynstat_salt_sd              =   2.7015063752556E-01
(PID.TID 0000.0001) %MON dynstat_salt_del2            =   3.3826874258480E-07
(PID.TID 0000.0001) %MON advcfl_uvel_max              =   5.5752090627079E-04
(PID.TID 0000.0001) %MON advcfl_vvel_max              =   5.5640979918377E-04
(PID.TID 0000.0001) %MON advcfl_wvel_max              =   1.0181736524606E-03
(PID.TID 0000.0001) %MON advcfl_W_hf_max              =   1.0181736524606E-03
(PID.TID 0000.0001) %MON pe_b_mean                    =  -6.8272611988205E-01
(PID.TID 0000.0001) %MON ke_max                       =   9.7617432632419E-06
(PID.TID 0000.0001) %MON ke_mean                      =   2.3258499852802E-08
(PID.TID 0000.0001) %MON ke_vol                       =   4.6182913473131E+12
(PID.TID 0000.0001) // =======================================================
(PID.TID 0000.0001) // End MONITOR dynamic field statistics
(PID.TID 0000.0001) // =======================================================
(PID.TID 0000.0001) // =======================================================
(PID.TID 0000.0001) // Begin OBCS MONITOR field statistics
(PID.TID 0000.0001) // =======================================================
(PID.TID 0000.0001) %MON obc_N_vVel_max               =  -6.7788609340445E-08
(PID.TID 0000.0001) %MON obc_N_vVel_min               =  -6.7788609340446E-08
(PID.TID 0000.0001) %MON obc_N_vVel_mean              =  -6.7788609340446E-08
(PID.TID 0000.0001) %MON obc_N_vVel_sd                =  -4.3387349787156E-29
(PID.TID 0000.0001) %MON obc_N_vVel_Int               =  -4.4740482164695E+00
(PID.TID 0000.0001) // =======================================================
(PID.TID 0000.0001) // End OBCS MONITOR field statistics
(PID.TID 0000.0001) // =======================================================
 cg2d: Sum(rhs),rhsMax =   3.01163403387687E+00  4.53049885070821E+02
(PID.TID 0000.0001)      cg2d_init_res =   1.42266695917007E-06
(PID.TID 0000.0001)      cg2d_iters(min,last) =      -1      70
(PID.TID 0000.0001)      cg2d_last_res =   8.92780521847319E-12
(PID.TID 0000.0001) // =======================================================
(PID.TID 0000.0001) // Begin MONITOR dynamic field statistics
(PID.TID 0000.0001) // =======================================================
(PID.TID 0000.0001) %MON time_tsnumber                =                   530
(PID.TID 0000.0001) %MON time_secondsf                =   5.3000000000000E+04
(PID.TID 0000.0001) %MON dynstat_eta_max              =   5.7969452338475E+00
(PID.TID 0000.0001) %MON dynstat_eta_min              =  -1.4175896108548E+01
(PID.TID 0000.0001) %MON dynstat_eta_mean             =  -2.5267045424505E+00
(PID.TID 0000.0001) %MON dynstat_eta_sd               =   4.9418593872167E+00
(PID.TID 0000.0001) %MON dynstat_eta_del2             =   1.9058110311443E-01
(PID.TID 0000.0001) %MON dynstat_uvel_max             =   2.2245776245811E-03
(PID.TID 0000.0001) %MON dynstat_uvel_min             =  -5.5931629457797E-03
(PID.TID 0000.0001) %MON dynstat_uvel_mean            =  -1.8208029157313E-09
(PID.TID 0000.0001) %MON dynstat_uvel_sd              =   1.8147365458810E-04
(PID.TID 0000.0001) %MON dynstat_uvel_del2            =   3.1884515074987E-07
(PID.TID 0000.0001) %MON dynstat_vvel_max             =   5.5777551072886E-03
(PID.TID 0000.0001) %MON dynstat_vvel_min             =  -1.8919207623123E-03
(PID.TID 0000.0001) %MON dynstat_vvel_mean            =  -5.8422103994221E-08
(PID.TID 0000.0001) %MON dynstat_vvel_sd              =   1.1986991888408E-04
(PID.TID 0000.0001) %MON dynstat_vvel_del2            =   3.1963542687114E-07
(PID.TID 0000.0001) %MON dynstat_wvel_max             =   1.8593442018935E-04
(PID.TID 0000.0001) %MON dynstat_wvel_min             =  -2.0433954606693E-04
(PID.TID 0000.0001) %MON dynstat_wvel_mean            =   1.4183487158901E-10
(PID.TID 0000.0001) %MON dynstat_wvel_sd              =   1.3352508754981E-05
(PID.TID 0000.0001) %MON dynstat_wvel_del2            =   5.6446479457724E-08
(PID.TID 0000.0001) %MON dynstat_theta_max            =   1.2000000000000E+00
(PID.TID 0000.0001) %MON dynstat_theta_min            =  -1.0000000000000E+00
(PID.TID 0000.0001) %MON dynstat_theta_mean           =   5.6539229901870E-01
(PID.TID 0000.0001) %MON dynstat_theta_sd             =   8.4904283241056E-01
(PID.TID 0000.0001) %MON dynstat_theta_del2           =   9.0171950406516E-07
(PID.TID 0000.0001) %MON dynstat_salt_max             =   3.4700000000000E+01
(PID.TID 0000.0001) %MON dynstat_salt_min             =   3.4000000000000E+01
(PID.TID 0000.0001) %MON dynstat_salt_mean            =   3.4498070506481E+01
(PID.TID 0000.0001) %MON dynstat_salt_sd              =   2.7015061309404E-01
(PID.TID 0000.0001) %MON dynstat_salt_del2            =   3.3858228797297E-07
(PID.TID 0000.0001) %MON advcfl_uvel_max              =   5.5931629457797E-04
(PID.TID 0000.0001) %MON advcfl_vvel_max              =   5.5777551072886E-04
(PID.TID 0000.0001) %MON advcfl_wvel_max              =   1.0216977303346E-03
(PID.TID 0000.0001) %MON advcfl_W_hf_max              =   1.0216977303346E-03
(PID.TID 0000.0001) %MON pe_b_mean                    =  -6.8272548462936E-01
(PID.TID 0000.0001) %MON ke_max                       =   9.8221468413092E-06
(PID.TID 0000.0001) %MON ke_mean                      =   2.3340975323298E-08
(PID.TID 0000.0001) %MON ke_vol                       =   4.6182913611555E+12
(PID.TID 0000.0001) // =======================================================
(PID.TID 0000.0001) // End MONITOR dynamic field statistics
(PID.TID 0000.0001) // =======================================================
(PID.TID 0000.0001) // =======================================================
(PID.TID 0000.0001) // Begin OBCS MONITOR field statistics
(PID.TID 0000.0001) // =======================================================
(PID.TID 0000.0001) %MON obc_N_vVel_max               =  -6.8714144261256E-08
(PID.TID 0000.0001) %MON obc_N_vVel_min               =  -6.8714144261259E-08
(PID.TID 0000.0001) %MON obc_N_vVel_mean              =  -6.8714144261259E-08
(PID.TID 0000.0001) %MON obc_N_vVel_sd                =  -2.3744713247152E-28
(PID.TID 0000.0001) %MON obc_N_vVel_Int               =  -4.5351335212431E+00
(PID.TID 0000.0001) // =======================================================
(PID.TID 0000.0001) // End OBCS MONITOR field statistics
(PID.TID 0000.0001) // =======================================================
 cg2d: Sum(rhs),rhsMax =   3.01163131272829E+00  4.53049875364207E+02
(PID.TID 0000.0001)      cg2d_init_res =   1.42757865386353E-06
(PID.TID 0000.0001)      cg2d_iters(min,last) =      -1      70
(PID.TID 0000.0001)      cg2d_last_res =   8.95514523462605E-12
(PID.TID 0000.0001) // =======================================================
(PID.TID 0000.0001) // Begin MONITOR dynamic field statistics
(PID.TID 0000.0001) // =======================================================
(PID.TID 0000.0001) %MON time_tsnumber                =                   531
(PID.TID 0000.0001) %MON time_secondsf                =   5.3100000000000E+04
(PID.TID 0000.0001) %MON dynstat_eta_max              =   5.7969479363185E+00
(PID.TID 0000.0001) %MON dynstat_eta_min              =  -1.4175890356187E+01
(PID.TID 0000.0001) %MON dynstat_eta_mean             =  -2.5267022053231E+00
(PID.TID 0000.0001) %MON dynstat_eta_sd               =   4.9418586530983E+00
(PID.TID 0000.0001) %MON dynstat_eta_del2             =   1.9058110696285E-01
(PID.TID 0000.0001) %MON dynstat_uvel_max             =   2.2281415584384E-03
(PID.TID 0000.0001) %MON dynstat_uvel_min             =  -5.6111598663131E-03
(PID.TID 0000.0001) %MON dynstat_uvel_mean            =  -1.8156505180533E-09
(PID.TID 0000.0001) %MON dynstat_uvel_sd              =   1.8181419818679E-04
(PID.TID 0000.0001) %MON dynstat_uvel_del2            =   3.1934411875560E-07
(PID.TID 0000.0001) %MON dynstat_vvel_max             =   5.5914277007389E-03
(PID.TID 0000.0001) %MON dynstat_vvel_min             =  -1.8889041193226E-03
(PID.TID 0000.0001) %MON dynstat_vvel_mean            =  -5.9512363436303E-08
(PID.TID 0000.0001) %MON dynstat_vvel_sd              =   1.2001542372410E-04
(PID.TID 0000.0001) %MON dynstat_vvel_del2            =   3.2017235019338E-07
(PID.TID 0000.0001) %MON dynstat_wvel_max             =   1.8675796026163E-04
(PID.TID 0000.0001) %MON dynstat_wvel_min             =  -2.0504512318286E-04
(PID.TID 0000.0001) %MON dynstat_wvel_mean            =   1.4160453777220E-10
(PID.TID 0000.0001) %MON dynstat_wvel_sd              =   1.3399203294102E-05
(PID.TID 0000.0001) %MON dynstat_wvel_del2            =   5.6886599383696E-08
(PID.TID 0000.0001) %MON dynstat_theta_max            =   1.2000000000000E+00
(PID.TID 0000.0001) %MON dynstat_theta_min            =  -1.0000000000000E+00
(PID.TID 0000.0001) %MON dynstat_theta_mean           =   5.6539204614425E-01
(PID.TID 0000.0001) %MON dynstat_theta_sd             =   8.4904275889011E-01
(PID.TID 0000.0001) %MON dynstat_theta_del2           =   9.0214638411168E-07
(PID.TID 0000.0001) %MON dynstat_salt_max             =   3.4700000000000E+01
(PID.TID 0000.0001) %MON dynstat_salt_min             =   3.4000000000000E+01
(PID.TID 0000.0001) %MON dynstat_salt_mean            =   3.4498070406042E+01
(PID.TID 0000.0001) %MON dynstat_salt_sd              =   2.7015058859697E-01
(PID.TID 0000.0001) %MON dynstat_salt_del2            =   3.3893784858357E-07
(PID.TID 0000.0001) %MON advcfl_uvel_max              =   5.6111598663131E-04
(PID.TID 0000.0001) %MON advcfl_vvel_max              =   5.5914277007389E-04
(PID.TID 0000.0001) %MON advcfl_wvel_max              =   1.0252256159143E-03
(PID.TID 0000.0001) %MON advcfl_W_hf_max              =   1.0252256159143E-03
(PID.TID 0000.0001) %MON pe_b_mean                    =  -6.8272484838739E-01
(PID.TID 0000.0001) %MON ke_max                       =   9.8828956171570E-06
(PID.TID 0000.0001) %MON ke_mean                      =   2.3419121939983E-08
(PID.TID 0000.0001) %MON ke_vol                       =   4.6182913750178E+12
(PID.TID 0000.0001) // =======================================================
(PID.TID 0000.0001) // End MONITOR dynamic field statistics
(PID.TID 0000.0001) // =======================================================
(PID.TID 0000.0001) // =======================================================
(PID.TID 0000.0001) // Begin OBCS MONITOR field statistics
(PID.TID 0000.0001) // =======================================================
(PID.TID 0000.0001) %MON obc_N_vVel_max               =  -6.9699233902211E-08
(PID.TID 0000.0001) %MON obc_N_vVel_min               =  -6.9699233902212E-08
(PID.TID 0000.0001) %MON obc_N_vVel_mean              =  -6.9699233902211E-08
(PID.TID 0000.0001) %MON obc_N_vVel_sd                =   1.5020460009374E-14
(PID.TID 0000.0001) %MON obc_N_vVel_Int               =  -4.6001494375460E+00
(PID.TID 0000.0001) // =======================================================
(PID.TID 0000.0001) // End OBCS MONITOR field statistics
(PID.TID 0000.0001) // =======================================================
 cg2d: Sum(rhs),rhsMax =   3.01162858705753E+00  4.53049865721582E+02
(PID.TID 0000.0001)      cg2d_init_res =   1.43107364449028E-06
(PID.TID 0000.0001)      cg2d_iters(min,last) =      -1      70
(PID.TID 0000.0001)      cg2d_last_res =   8.98032543270896E-12
(PID.TID 0000.0001) // =======================================================
(PID.TID 0000.0001) // Begin MONITOR dynamic field statistics
(PID.TID 0000.0001) // =======================================================
(PID.TID 0000.0001) %MON time_tsnumber                =                   532
(PID.TID 0000.0001) %MON time_secondsf                =   5.3200000000000E+04
(PID.TID 0000.0001) %MON dynstat_eta_max              =   5.7969506398922E+00
(PID.TID 0000.0001) %MON dynstat_eta_min              =  -1.4175884607235E+01
(PID.TID 0000.0001) %MON dynstat_eta_mean             =  -2.5266998647587E+00
(PID.TID 0000.0001) %MON dynstat_eta_sd               =   4.9418579178874E+00
(PID.TID 0000.0001) %MON dynstat_eta_del2             =   1.9058111081813E-01
(PID.TID 0000.0001) %MON dynstat_uvel_max             =   2.2317140602386E-03
(PID.TID 0000.0001) %MON dynstat_uvel_min             =  -5.6291999638693E-03
(PID.TID 0000.0001) %MON dynstat_uvel_mean            =  -1.8121846970768E-09
(PID.TID 0000.0001) %MON dynstat_uvel_sd              =   1.8215512542358E-04
(PID.TID 0000.0001) %MON dynstat_uvel_del2            =   3.1984682624695E-07
(PID.TID 0000.0001) %MON dynstat_vvel_max             =   5.6051158730956E-03
(PID.TID 0000.0001) %MON dynstat_vvel_min             =  -1.8858489790201E-03
(PID.TID 0000.0001) %MON dynstat_vvel_mean            =  -6.0608923057709E-08
(PID.TID 0000.0001) %MON dynstat_vvel_sd              =   1.2012148420693E-04
(PID.TID 0000.0001) %MON dynstat_vvel_del2            =   3.2060265745445E-07
(PID.TID 0000.0001) %MON dynstat_wvel_max             =   1.8758328217004E-04
(PID.TID 0000.0001) %MON dynstat_wvel_min             =  -2.0575145927663E-04
(PID.TID 0000.0001) %MON dynstat_wvel_mean            =   1.4162278163757E-10
(PID.TID 0000.0001) %MON dynstat_wvel_sd              =   1.3391124947716E-05
(PID.TID 0000.0001) %MON dynstat_wvel_del2            =   5.7197669089718E-08
(PID.TID 0000.0001) %MON dynstat_theta_max            =   1.2000000000000E+00
(PID.TID 0000.0001) %MON dynstat_theta_min            =  -1.0000000000000E+00
(PID.TID 0000.0001) %MON dynstat_theta_mean           =   5.6539179303245E-01
(PID.TID 0000.0001) %MON dynstat_theta_sd             =   8.4904268521242E-01
(PID.TID 0000.0001) %MON dynstat_theta_del2           =   9.0275191847975E-07
(PID.TID 0000.0001) %MON dynstat_salt_max             =   3.4700000000000E+01
(PID.TID 0000.0001) %MON dynstat_salt_min             =   3.4000000000000E+01
(PID.TID 0000.0001) %MON dynstat_salt_mean            =   3.4498070305506E+01
(PID.TID 0000.0001) %MON dynstat_salt_sd              =   2.7015056403621E-01
(PID.TID 0000.0001) %MON dynstat_salt_del2            =   3.3934195776242E-07
(PID.TID 0000.0001) %MON advcfl_uvel_max              =   5.6291999638693E-04
(PID.TID 0000.0001) %MON advcfl_vvel_max              =   5.6051158730956E-04
(PID.TID 0000.0001) %MON advcfl_wvel_max              =   1.0287572963831E-03
(PID.TID 0000.0001) %MON advcfl_W_hf_max              =   1.0287572963831E-03
(PID.TID 0000.0001) %MON pe_b_mean                    =  -6.8272421115652E-01
(PID.TID 0000.0001) %MON ke_max                       =   9.9439915656751E-06
(PID.TID 0000.0001) %MON ke_mean                      =   2.3492733352373E-08
(PID.TID 0000.0001) %MON ke_vol                       =   4.6182913889004E+12
(PID.TID 0000.0001) // =======================================================
(PID.TID 0000.0001) // End MONITOR dynamic field statistics
(PID.TID 0000.0001) // =======================================================
(PID.TID 0000.0001) // =======================================================
(PID.TID 0000.0001) // Begin OBCS MONITOR field statistics
(PID.TID 0000.0001) // =======================================================
(PID.TID 0000.0001) %MON obc_N_vVel_max               =  -7.0711274263169E-08
(PID.TID 0000.0001) %MON obc_N_vVel_min               =  -7.0711274263169E-08
(PID.TID 0000.0001) %MON obc_N_vVel_mean              =  -7.0711274263169E-08
(PID.TID 0000.0001) %MON obc_N_vVel_sd                =   1.1128843700929E-14
(PID.TID 0000.0001) %MON obc_N_vVel_Int               =  -4.6669441013691E+00
(PID.TID 0000.0001) // =======================================================
(PID.TID 0000.0001) // End OBCS MONITOR field statistics
(PID.TID 0000.0001) // =======================================================
 cg2d: Sum(rhs),rhsMax =   3.01162585683981E+00  4.53049856147433E+02
(PID.TID 0000.0001)      cg2d_init_res =   1.43290953099400E-06
(PID.TID 0000.0001)      cg2d_iters(min,last) =      -1      70
(PID.TID 0000.0001)      cg2d_last_res =   9.00388704036069E-12
(PID.TID 0000.0001) // =======================================================
(PID.TID 0000.0001) // Begin MONITOR dynamic field statistics
(PID.TID 0000.0001) // =======================================================
(PID.TID 0000.0001) %MON time_tsnumber                =                   533
(PID.TID 0000.0001) %MON time_secondsf                =   5.3300000000000E+04
(PID.TID 0000.0001) %MON dynstat_eta_max              =   5.7969533445308E+00
(PID.TID 0000.0001) %MON dynstat_eta_min              =  -1.4175878861857E+01
(PID.TID 0000.0001) %MON dynstat_eta_mean             =  -2.5266975207614E+00
(PID.TID 0000.0001) %MON dynstat_eta_sd               =   4.9418571816180E+00
(PID.TID 0000.0001) %MON dynstat_eta_del2             =   1.9058111468042E-01
(PID.TID 0000.0001) %MON dynstat_uvel_max             =   2.2352951556623E-03
(PID.TID 0000.0001) %MON dynstat_uvel_min             =  -5.6472833777734E-03
(PID.TID 0000.0001) %MON dynstat_uvel_mean            =  -1.8104089140838E-09
(PID.TID 0000.0001) %MON dynstat_uvel_sd              =   1.8249642599005E-04
(PID.TID 0000.0001) %MON dynstat_uvel_del2            =   3.2035319118141E-07
(PID.TID 0000.0001) %MON dynstat_vvel_max             =   5.6188197248890E-03
(PID.TID 0000.0001) %MON dynstat_vvel_min             =  -1.8827554585803E-03
(PID.TID 0000.0001) %MON dynstat_vvel_mean            =  -6.1676111782410E-08
(PID.TID 0000.0001) %MON dynstat_vvel_sd              =   1.2018825951185E-04
(PID.TID 0000.0001) %MON dynstat_vvel_del2            =   3.2091957515658E-07
(PID.TID 0000.0001) %MON dynstat_wvel_max             =   1.8841038848742E-04
(PID.TID 0000.0001) %MON dynstat_wvel_min             =  -2.0645855177217E-04
(PID.TID 0000.0001) %MON dynstat_wvel_mean            =   1.4188895990315E-10
(PID.TID 0000.0001) %MON dynstat_wvel_sd              =   1.3326743632631E-05
(PID.TID 0000.0001) %MON dynstat_wvel_del2            =   5.7358038522159E-08
(PID.TID 0000.0001) %MON dynstat_theta_max            =   1.2000000000000E+00
(PID.TID 0000.0001) %MON dynstat_theta_min            =  -1.0000000000000E+00
(PID.TID 0000.0001) %MON dynstat_theta_mean           =   5.6539153969120E-01
(PID.TID 0000.0001) %MON dynstat_theta_sd             =   8.4904261137214E-01
(PID.TID 0000.0001) %MON dynstat_theta_del2           =   9.0355290505131E-07
(PID.TID 0000.0001) %MON dynstat_salt_max             =   3.4700000000000E+01
(PID.TID 0000.0001) %MON dynstat_salt_min             =   3.4000000000000E+01
(PID.TID 0000.0001) %MON dynstat_salt_mean            =   3.4498070204875E+01
(PID.TID 0000.0001) %MON dynstat_salt_sd              =   2.7015053941018E-01
(PID.TID 0000.0001) %MON dynstat_salt_del2            =   3.3979905390978E-07
(PID.TID 0000.0001) %MON advcfl_uvel_max              =   5.6472833777734E-04
(PID.TID 0000.0001) %MON advcfl_vvel_max              =   5.6188197248890E-04
(PID.TID 0000.0001) %MON advcfl_wvel_max              =   1.0322927588609E-03
(PID.TID 0000.0001) %MON advcfl_W_hf_max              =   1.0322927588609E-03
(PID.TID 0000.0001) %MON pe_b_mean                    =  -6.8272357294465E-01
(PID.TID 0000.0001) %MON ke_max                       =   1.0005436670216E-05
(PID.TID 0000.0001) %MON ke_mean                      =   2.3561814678261E-08
(PID.TID 0000.0001) %MON ke_vol                       =   4.6182914028033E+12
(PID.TID 0000.0001) // =======================================================
(PID.TID 0000.0001) // End MONITOR dynamic field statistics
(PID.TID 0000.0001) // =======================================================
(PID.TID 0000.0001) // =======================================================
(PID.TID 0000.0001) // Begin OBCS MONITOR field statistics
(PID.TID 0000.0001) // =======================================================
(PID.TID 0000.0001) %MON obc_N_vVel_max               =  -7.1717369438177E-08
(PID.TID 0000.0001) %MON obc_N_vVel_min               =  -7.1717369438179E-08
(PID.TID 0000.0001) %MON obc_N_vVel_mean              =  -7.1717369438177E-08
(PID.TID 0000.0001) %MON obc_N_vVel_sd                =   6.2803698347351E-15
(PID.TID 0000.0001) %MON obc_N_vVel_Int               =  -4.7333463829197E+00
(PID.TID 0000.0001) // =======================================================
(PID.TID 0000.0001) // End OBCS MONITOR field statistics
(PID.TID 0000.0001) // =======================================================
 cg2d: Sum(rhs),rhsMax =   3.01162312211000E+00  4.53049846644086E+02
(PID.TID 0000.0001)      cg2d_init_res =   1.43290434455859E-06
(PID.TID 0000.0001)      cg2d_iters(min,last) =      -1      70
(PID.TID 0000.0001)      cg2d_last_res =   9.02724032264100E-12
(PID.TID 0000.0001) // =======================================================
(PID.TID 0000.0001) // Begin MONITOR dynamic field statistics
(PID.TID 0000.0001) // =======================================================
(PID.TID 0000.0001) %MON time_tsnumber                =                   534
(PID.TID 0000.0001) %MON time_secondsf                =   5.3400000000000E+04
(PID.TID 0000.0001) %MON dynstat_eta_max              =   5.7969560501301E+00
(PID.TID 0000.0001) %MON dynstat_eta_min              =  -1.4175873120302E+01
(PID.TID 0000.0001) %MON dynstat_eta_mean             =  -2.5266951733736E+00
(PID.TID 0000.0001) %MON dynstat_eta_sd               =   4.9418564443335E+00
(PID.TID 0000.0001) %MON dynstat_eta_del2             =   1.9058111854974E-01
(PID.TID 0000.0001) %MON dynstat_uvel_max             =   2.2388848696782E-03
(PID.TID 0000.0001) %MON dynstat_uvel_min             =  -5.6654102471150E-03
(PID.TID 0000.0001) %MON dynstat_uvel_mean            =  -1.8102773419215E-09
(PID.TID 0000.0001) %MON dynstat_uvel_sd              =   1.8283808214897E-04
(PID.TID 0000.0001) %MON dynstat_uvel_del2            =   3.2086310190740E-07
(PID.TID 0000.0001) %MON dynstat_vvel_max             =   5.6325393561938E-03
(PID.TID 0000.0001) %MON dynstat_vvel_min             =  -1.8796236778513E-03
(PID.TID 0000.0001) %MON dynstat_vvel_mean            =  -6.2679876677873E-08
(PID.TID 0000.0001) %MON dynstat_vvel_sd              =   1.2021767281941E-04
(PID.TID 0000.0001) %MON dynstat_vvel_del2            =   3.2112138667660E-07
(PID.TID 0000.0001) %MON dynstat_wvel_max             =   1.8923928185641E-04
(PID.TID 0000.0001) %MON dynstat_wvel_min             =  -2.0716639810215E-04
(PID.TID 0000.0001) %MON dynstat_wvel_mean            =   1.4239398507956E-10
(PID.TID 0000.0001) %MON dynstat_wvel_sd              =   1.3206376421464E-05
(PID.TID 0000.0001) %MON dynstat_wvel_del2            =   5.7351505255456E-08
(PID.TID 0000.0001) %MON dynstat_theta_max            =   1.2000000000000E+00
(PID.TID 0000.0001) %MON dynstat_theta_min            =  -1.0000000000000E+00
(PID.TID 0000.0001) %MON dynstat_theta_mean           =   5.6539128612787E-01
(PID.TID 0000.0001) %MON dynstat_theta_sd             =   8.4904253733788E-01
(PID.TID 0000.0001) %MON dynstat_theta_del2           =   9.0455717725312E-07
(PID.TID 0000.0001) %MON dynstat_salt_max             =   3.4700000000000E+01
(PID.TID 0000.0001) %MON dynstat_salt_min             =   3.4000000000000E+01
(PID.TID 0000.0001) %MON dynstat_salt_mean            =   3.4498070104153E+01
(PID.TID 0000.0001) %MON dynstat_salt_sd              =   2.7015051470862E-01
(PID.TID 0000.0001) %MON dynstat_salt_del2            =   3.4031115694484E-07
(PID.TID 0000.0001) %MON advcfl_uvel_max              =   5.6654102471150E-04
(PID.TID 0000.0001) %MON advcfl_vvel_max              =   5.6325393561938E-04
(PID.TID 0000.0001) %MON advcfl_wvel_max              =   1.0358319905107E-03
(PID.TID 0000.0001) %MON advcfl_W_hf_max              =   1.0358319905107E-03
(PID.TID 0000.0001) %MON pe_b_mean                    =  -6.8272293376723E-01
(PID.TID 0000.0001) %MON ke_max                       =   1.0067232922324E-05
(PID.TID 0000.0001) %MON ke_mean                      =   2.3626586429507E-08
(PID.TID 0000.0001) %MON ke_vol                       =   4.6182914167267E+12
(PID.TID 0000.0001) // =======================================================
(PID.TID 0000.0001) // End MONITOR dynamic field statistics
(PID.TID 0000.0001) // =======================================================
(PID.TID 0000.0001) // =======================================================
(PID.TID 0000.0001) // Begin OBCS MONITOR field statistics
(PID.TID 0000.0001) // =======================================================
(PID.TID 0000.0001) %MON obc_N_vVel_max               =  -7.2685332988152E-08
(PID.TID 0000.0001) %MON obc_N_vVel_min               =  -7.2685332988153E-08
(PID.TID 0000.0001) %MON obc_N_vVel_mean              =  -7.2685332988152E-08
(PID.TID 0000.0001) %MON obc_N_vVel_sd                =   1.7222418539889E-14
(PID.TID 0000.0001) %MON obc_N_vVel_Int               =  -4.7972319772180E+00
(PID.TID 0000.0001) // =======================================================
(PID.TID 0000.0001) // End OBCS MONITOR field statistics
(PID.TID 0000.0001) // =======================================================
 cg2d: Sum(rhs),rhsMax =   3.01162038293985E+00  4.53049837214398E+02
(PID.TID 0000.0001)      cg2d_init_res =   1.43093725527847E-06
(PID.TID 0000.0001)      cg2d_iters(min,last) =      -1      70
(PID.TID 0000.0001)      cg2d_last_res =   9.05108737813768E-12
(PID.TID 0000.0001) // =======================================================
(PID.TID 0000.0001) // Begin MONITOR dynamic field statistics
(PID.TID 0000.0001) // =======================================================
(PID.TID 0000.0001) %MON time_tsnumber                =                   535
(PID.TID 0000.0001) %MON time_secondsf                =   5.3500000000000E+04
(PID.TID 0000.0001) %MON dynstat_eta_max              =   5.7969587565407E+00
(PID.TID 0000.0001) %MON dynstat_eta_min              =  -1.4175867382894E+01
(PID.TID 0000.0001) %MON dynstat_eta_mean             =  -2.5266928226712E+00
(PID.TID 0000.0001) %MON dynstat_eta_sd               =   4.9418557060855E+00
(PID.TID 0000.0001) %MON dynstat_eta_del2             =   1.9058112242605E-01
(PID.TID 0000.0001) %MON dynstat_uvel_max             =   2.2424832264427E-03
(PID.TID 0000.0001) %MON dynstat_uvel_min             =  -5.6835807106879E-03
(PID.TID 0000.0001) %MON dynstat_uvel_mean            =  -1.8116781113690E-09
(PID.TID 0000.0001) %MON dynstat_uvel_sd              =   1.8318006961087E-04
(PID.TID 0000.0001) %MON dynstat_uvel_del2            =   3.2137641995826E-07
(PID.TID 0000.0001) %MON dynstat_vvel_max             =   5.6462748662989E-03
(PID.TID 0000.0001) %MON dynstat_vvel_min             =  -1.8764537599001E-03
(PID.TID 0000.0001) %MON dynstat_vvel_mean            =  -6.3588884543512E-08
(PID.TID 0000.0001) %MON dynstat_vvel_sd              =   1.2021336256083E-04
(PID.TID 0000.0001) %MON dynstat_vvel_del2            =   3.2121174914183E-07
(PID.TID 0000.0001) %MON dynstat_wvel_max             =   1.9006996496358E-04
(PID.TID 0000.0001) %MON dynstat_wvel_min             =  -2.0787499570413E-04
(PID.TID 0000.0001) %MON dynstat_wvel_mean            =   1.4312076446544E-10
(PID.TID 0000.0001) %MON dynstat_wvel_sd              =   1.3032273963550E-05
(PID.TID 0000.0001) %MON dynstat_wvel_del2            =   5.7168033123184E-08
(PID.TID 0000.0001) %MON dynstat_theta_max            =   1.2000000000000E+00
(PID.TID 0000.0001) %MON dynstat_theta_min            =  -1.0000000000000E+00
(PID.TID 0000.0001) %MON dynstat_theta_mean           =   5.6539103234895E-01
(PID.TID 0000.0001) %MON dynstat_theta_sd             =   8.4904246310877E-01
(PID.TID 0000.0001) %MON dynstat_theta_del2           =   9.0576286027741E-07
(PID.TID 0000.0001) %MON dynstat_salt_max             =   3.4700000000000E+01
(PID.TID 0000.0001) %MON dynstat_salt_min             =   3.4000000000000E+01
(PID.TID 0000.0001) %MON dynstat_salt_mean            =   3.4498070003341E+01
(PID.TID 0000.0001) %MON dynstat_salt_sd              =   2.7015048993154E-01
(PID.TID 0000.0001) %MON dynstat_salt_del2            =   3.4087770054647E-07
(PID.TID 0000.0001) %MON advcfl_uvel_max              =   5.6835807106879E-04
(PID.TID 0000.0001) %MON advcfl_vvel_max              =   5.6462748662989E-04
(PID.TID 0000.0001) %MON advcfl_wvel_max              =   1.0393749785206E-03
(PID.TID 0000.0001) %MON advcfl_W_hf_max              =   1.0393749785206E-03
(PID.TID 0000.0001) %MON pe_b_mean                    =  -6.8272229364620E-01
(PID.TID 0000.0001) %MON ke_max                       =   1.0129382321431E-05
(PID.TID 0000.0001) %MON ke_mean                      =   2.3687478665962E-08
(PID.TID 0000.0001) %MON ke_vol                       =   4.6182914306702E+12
(PID.TID 0000.0001) // =======================================================
(PID.TID 0000.0001) // End MONITOR dynamic field statistics
(PID.TID 0000.0001) // =======================================================
(PID.TID 0000.0001) // =======================================================
(PID.TID 0000.0001) // Begin OBCS MONITOR field statistics
(PID.TID 0000.0001) // =======================================================
(PID.TID 0000.0001) %MON obc_N_vVel_max               =  -7.3584783559152E-08
(PID.TID 0000.0001) %MON obc_N_vVel_min               =  -7.3584783559152E-08
(PID.TID 0000.0001) %MON obc_N_vVel_mean              =  -7.3584783559152E-08
(PID.TID 0000.0001) %MON obc_N_vVel_sd                =  -6.7053176943786E-29
(PID.TID 0000.0001) %MON obc_N_vVel_Int               =  -4.8565957149040E+00
(PID.TID 0000.0001) // =======================================================
(PID.TID 0000.0001) // End OBCS MONITOR field statistics
(PID.TID 0000.0001) // =======================================================
 cg2d: Sum(rhs),rhsMax =   3.01161763945226E+00  4.53049827858897E+02
(PID.TID 0000.0001)      cg2d_init_res =   1.42696873969048E-06
(PID.TID 0000.0001)      cg2d_iters(min,last) =      -1      70
(PID.TID 0000.0001)      cg2d_last_res =   9.07527957489265E-12
(PID.TID 0000.0001) // =======================================================
(PID.TID 0000.0001) // Begin MONITOR dynamic field statistics
(PID.TID 0000.0001) // =======================================================
(PID.TID 0000.0001) %MON time_tsnumber                =                   536
(PID.TID 0000.0001) %MON time_secondsf                =   5.3600000000000E+04
(PID.TID 0000.0001) %MON dynstat_eta_max              =   5.7969614635675E+00
(PID.TID 0000.0001) %MON dynstat_eta_min              =  -1.4175861650006E+01
(PID.TID 0000.0001) %MON dynstat_eta_mean             =  -2.5266904687605E+00
(PID.TID 0000.0001) %MON dynstat_eta_sd               =   4.9418549669330E+00
(PID.TID 0000.0001) %MON dynstat_eta_del2             =   1.9058112630936E-01
(PID.TID 0000.0001) %MON dynstat_uvel_max             =   2.2460902494004E-03
(PID.TID 0000.0001) %MON dynstat_uvel_min             =  -5.7017949069849E-03
(PID.TID 0000.0001) %MON dynstat_uvel_mean            =  -1.8144265725521E-09
(PID.TID 0000.0001) %MON dynstat_uvel_sd              =   1.8352235871227E-04
(PID.TID 0000.0001) %MON dynstat_uvel_del2            =   3.2189298410588E-07
(PID.TID 0000.0001) %MON dynstat_vvel_max             =   5.6600263534901E-03
(PID.TID 0000.0001) %MON dynstat_vvel_min             =  -1.8732458314119E-03
(PID.TID 0000.0001) %MON dynstat_vvel_mean            =  -6.4375469645290E-08
(PID.TID 0000.0001) %MON dynstat_vvel_sd              =   1.2018055865950E-04
(PID.TID 0000.0001) %MON dynstat_vvel_del2            =   3.2119979596834E-07
(PID.TID 0000.0001) %MON dynstat_wvel_max             =   1.9090244053068E-04
(PID.TID 0000.0001) %MON dynstat_wvel_min             =  -2.0858434205739E-04
(PID.TID 0000.0001) %MON dynstat_wvel_mean            =   1.4404535969369E-10
(PID.TID 0000.0001) %MON dynstat_wvel_sd              =   1.2808708554214E-05
(PID.TID 0000.0001) %MON dynstat_wvel_del2            =   5.6804409483281E-08
(PID.TID 0000.0001) %MON dynstat_theta_max            =   1.2000000000000E+00
(PID.TID 0000.0001) %MON dynstat_theta_min            =  -1.0000000000000E+00
(PID.TID 0000.0001) %MON dynstat_theta_mean           =   5.6539077835985E-01
(PID.TID 0000.0001) %MON dynstat_theta_sd             =   8.4904238869732E-01
(PID.TID 0000.0001) %MON dynstat_theta_del2           =   9.0715835361454E-07
(PID.TID 0000.0001) %MON dynstat_salt_max             =   3.4700000000000E+01
(PID.TID 0000.0001) %MON dynstat_salt_min             =   3.4000000000000E+01
(PID.TID 0000.0001) %MON dynstat_salt_mean            =   3.4498069902442E+01
(PID.TID 0000.0001) %MON dynstat_salt_sd              =   2.7015046508274E-01
(PID.TID 0000.0001) %MON dynstat_salt_del2            =   3.4149551039674E-07
(PID.TID 0000.0001) %MON advcfl_uvel_max              =   5.7017949069849E-04
(PID.TID 0000.0001) %MON advcfl_vvel_max              =   5.6600263534901E-04
(PID.TID 0000.0001) %MON advcfl_wvel_max              =   1.0429217102869E-03
(PID.TID 0000.0001) %MON advcfl_W_hf_max              =   1.0429217102869E-03
(PID.TID 0000.0001) %MON pe_b_mean                    =  -6.8272165260898E-01
(PID.TID 0000.0001) %MON ke_max                       =   1.0191886875344E-05
(PID.TID 0000.0001) %MON ke_mean                      =   2.3745115314143E-08
(PID.TID 0000.0001) %MON ke_vol                       =   4.6182914446333E+12
(PID.TID 0000.0001) // =======================================================
(PID.TID 0000.0001) // End MONITOR dynamic field statistics
(PID.TID 0000.0001) // =======================================================
(PID.TID 0000.0001) // =======================================================
(PID.TID 0000.0001) // Begin OBCS MONITOR field statistics
(PID.TID 0000.0001) // =======================================================
(PID.TID 0000.0001) %MON obc_N_vVel_max               =  -7.4388184152316E-08
(PID.TID 0000.0001) %MON obc_N_vVel_min               =  -7.4388184152317E-08
(PID.TID 0000.0001) %MON obc_N_vVel_mean              =  -7.4388184152316E-08
(PID.TID 0000.0001) %MON obc_N_vVel_sd                =   7.4310338019330E-15
(PID.TID 0000.0001) %MON obc_N_vVel_Int               =  -4.9096201540529E+00
(PID.TID 0000.0001) // =======================================================
(PID.TID 0000.0001) // End OBCS MONITOR field statistics
(PID.TID 0000.0001) // =======================================================
 cg2d: Sum(rhs),rhsMax =   3.01161489181092E+00  4.53049818576694E+02
(PID.TID 0000.0001)      cg2d_init_res =   1.42104737999470E-06
(PID.TID 0000.0001)      cg2d_iters(min,last) =      -1      70
(PID.TID 0000.0001)      cg2d_last_res =   9.09917509761312E-12
(PID.TID 0000.0001) // =======================================================
(PID.TID 0000.0001) // Begin MONITOR dynamic field statistics
(PID.TID 0000.0001) // =======================================================
(PID.TID 0000.0001) %MON time_tsnumber                =                   537
(PID.TID 0000.0001) %MON time_secondsf                =   5.3700000000000E+04
(PID.TID 0000.0001) %MON dynstat_eta_max              =   5.7969641709639E+00
(PID.TID 0000.0001) %MON dynstat_eta_min              =  -1.4175855922066E+01
(PID.TID 0000.0001) %MON dynstat_eta_mean             =  -2.5266881117737E+00
(PID.TID 0000.0001) %MON dynstat_eta_sd               =   4.9418542269412E+00
(PID.TID 0000.0001) %MON dynstat_eta_del2             =   1.9058113019974E-01
(PID.TID 0000.0001) %MON dynstat_uvel_max             =   2.2497059612547E-03
(PID.TID 0000.0001) %MON dynstat_uvel_min             =  -5.7200529742643E-03
(PID.TID 0000.0001) %MON dynstat_uvel_mean            =  -1.8182886630163E-09
(PID.TID 0000.0001) %MON dynstat_uvel_sd              =   1.8386491584432E-04
(PID.TID 0000.0001) %MON dynstat_uvel_del2            =   3.2241261549492E-07
(PID.TID 0000.0001) %MON dynstat_vvel_max             =   5.6737939150742E-03
(PID.TID 0000.0001) %MON dynstat_vvel_min             =  -1.8700000232714E-03
(PID.TID 0000.0001) %MON dynstat_vvel_mean            =  -6.5016454646668E-08
(PID.TID 0000.0001) %MON dynstat_vvel_sd              =   1.2012588515713E-04
(PID.TID 0000.0001) %MON dynstat_vvel_del2            =   3.2109999810967E-07
(PID.TID 0000.0001) %MON dynstat_wvel_max             =   1.9173671131922E-04
(PID.TID 0000.0001) %MON dynstat_wvel_min             =  -2.0929443466055E-04
(PID.TID 0000.0001) %MON dynstat_wvel_mean            =   1.4513850164895E-10
(PID.TID 0000.0001) %MON dynstat_wvel_sd              =   1.2542057734057E-05
(PID.TID 0000.0001) %MON dynstat_wvel_del2            =   5.6264834242249E-08
(PID.TID 0000.0001) %MON dynstat_theta_max            =   1.2000000000000E+00
(PID.TID 0000.0001) %MON dynstat_theta_min            =  -1.0000000000000E+00
(PID.TID 0000.0001) %MON dynstat_theta_mean           =   5.6539052416486E-01
(PID.TID 0000.0001) %MON dynstat_theta_sd             =   8.4904231411864E-01
(PID.TID 0000.0001) %MON dynstat_theta_del2           =   9.0872268746881E-07
(PID.TID 0000.0001) %MON dynstat_salt_max             =   3.4700000000000E+01
(PID.TID 0000.0001) %MON dynstat_salt_min             =   3.4000000000000E+01
(PID.TID 0000.0001) %MON dynstat_salt_mean            =   3.4498069801455E+01
(PID.TID 0000.0001) %MON dynstat_salt_sd              =   2.7015044016703E-01
(PID.TID 0000.0001) %MON dynstat_salt_del2            =   3.4215890416449E-07
(PID.TID 0000.0001) %MON advcfl_uvel_max              =   5.7200529742643E-04
(PID.TID 0000.0001) %MON advcfl_vvel_max              =   5.6737939150742E-04
(PID.TID 0000.0001) %MON advcfl_wvel_max              =   1.0464721733027E-03
(PID.TID 0000.0001) %MON advcfl_W_hf_max              =   1.0464721733027E-03
(PID.TID 0000.0001) %MON pe_b_mean                    =  -6.8272101068762E-01
(PID.TID 0000.0001) %MON ke_max                       =   1.0254748603873E-05
(PID.TID 0000.0001) %MON ke_mean                      =   2.3800289087284E-08
(PID.TID 0000.0001) %MON ke_vol                       =   4.6182914586156E+12
(PID.TID 0000.0001) // =======================================================
(PID.TID 0000.0001) // End MONITOR dynamic field statistics
(PID.TID 0000.0001) // =======================================================
(PID.TID 0000.0001) // =======================================================
(PID.TID 0000.0001) // Begin OBCS MONITOR field statistics
(PID.TID 0000.0001) // =======================================================
(PID.TID 0000.0001) %MON obc_N_vVel_max               =  -7.5071698286178E-08
(PID.TID 0000.0001) %MON obc_N_vVel_min               =  -7.5071698286178E-08
(PID.TID 0000.0001) %MON obc_N_vVel_mean              =  -7.5071698286178E-08
(PID.TID 0000.0001) %MON obc_N_vVel_sd                =   1.2560739669470E-15
(PID.TID 0000.0001) %MON obc_N_vVel_Int               =  -4.9547320868877E+00
(PID.TID 0000.0001) // =======================================================
(PID.TID 0000.0001) // End OBCS MONITOR field statistics
(PID.TID 0000.0001) // =======================================================
 cg2d: Sum(rhs),rhsMax =   3.01161214021585E+00  4.53049809365484E+02
(PID.TID 0000.0001)      cg2d_init_res =   1.41331671382974E-06
(PID.TID 0000.0001)      cg2d_iters(min,last) =      -1      70
(PID.TID 0000.0001)      cg2d_last_res =   9.12264143615245E-12
(PID.TID 0000.0001) // =======================================================
(PID.TID 0000.0001) // Begin MONITOR dynamic field statistics
(PID.TID 0000.0001) // =======================================================
(PID.TID 0000.0001) %MON time_tsnumber                =                   538
(PID.TID 0000.0001) %MON time_secondsf                =   5.3800000000000E+04
(PID.TID 0000.0001) %MON dynstat_eta_max              =   5.7969668784607E+00
(PID.TID 0000.0001) %MON dynstat_eta_min              =  -1.4175850199535E+01
(PID.TID 0000.0001) %MON dynstat_eta_mean             =  -2.5266857518659E+00
(PID.TID 0000.0001) %MON dynstat_eta_sd               =   4.9418534861773E+00
(PID.TID 0000.0001) %MON dynstat_eta_del2             =   1.9058113409716E-01
(PID.TID 0000.0001) %MON dynstat_uvel_max             =   2.2533303837413E-03
(PID.TID 0000.0001) %MON dynstat_uvel_min             =  -5.7383550502106E-03
(PID.TID 0000.0001) %MON dynstat_uvel_mean            =  -1.8230083213472E-09
(PID.TID 0000.0001) %MON dynstat_uvel_sd              =   1.8420770506405E-04
(PID.TID 0000.0001) %MON dynstat_uvel_del2            =   3.2293512370350E-07
(PID.TID 0000.0001) %MON dynstat_vvel_max             =   5.6875776469205E-03
(PID.TID 0000.0001) %MON dynstat_vvel_min             =  -1.8667164708299E-03
(PID.TID 0000.0001) %MON dynstat_vvel_mean            =  -6.5493836441106E-08
(PID.TID 0000.0001) %MON dynstat_vvel_sd              =   1.2005709346788E-04
(PID.TID 0000.0001) %MON dynstat_vvel_del2            =   3.2093176460690E-07
(PID.TID 0000.0001) %MON dynstat_wvel_max             =   1.9257278009463E-04
(PID.TID 0000.0001) %MON dynstat_wvel_min             =  -2.1000527102085E-04
(PID.TID 0000.0001) %MON dynstat_wvel_mean            =   1.4636588984845E-10
(PID.TID 0000.0001) %MON dynstat_wvel_sd              =   1.2240869640557E-05
(PID.TID 0000.0001) %MON dynstat_wvel_del2            =   5.5561417287233E-08
(PID.TID 0000.0001) %MON dynstat_theta_max            =   1.2000000000000E+00
(PID.TID 0000.0001) %MON dynstat_theta_min            =  -1.0000000000000E+00
(PID.TID 0000.0001) %MON dynstat_theta_mean           =   5.6539026976723E-01
(PID.TID 0000.0001) %MON dynstat_theta_sd             =   8.4904223937460E-01
(PID.TID 0000.0001) %MON dynstat_theta_del2           =   9.1042630629850E-07
(PID.TID 0000.0001) %MON dynstat_salt_max             =   3.4700000000000E+01
(PID.TID 0000.0001) %MON dynstat_salt_min             =   3.4000000000000E+01
(PID.TID 0000.0001) %MON dynstat_salt_mean            =   3.4498069700383E+01
(PID.TID 0000.0001) %MON dynstat_salt_sd              =   2.7015041518507E-01
(PID.TID 0000.0001) %MON dynstat_salt_del2            =   3.4285991944870E-07
(PID.TID 0000.0001) %MON advcfl_uvel_max              =   5.7383550502106E-04
(PID.TID 0000.0001) %MON advcfl_vvel_max              =   5.6875776469205E-04
(PID.TID 0000.0001) %MON advcfl_wvel_max              =   1.0500263551042E-03
(PID.TID 0000.0001) %MON advcfl_W_hf_max              =   1.0500263551042E-03
(PID.TID 0000.0001) %MON pe_b_mean                    =  -6.8272036791781E-01
(PID.TID 0000.0001) %MON ke_max                       =   1.0317969535124E-05
(PID.TID 0000.0001) %MON ke_mean                      =   2.3853927895833E-08
(PID.TID 0000.0001) %MON ke_vol                       =   4.6182914726161E+12
(PID.TID 0000.0001) // =======================================================
(PID.TID 0000.0001) // End MONITOR dynamic field statistics
(PID.TID 0000.0001) // =======================================================
(PID.TID 0000.0001) // =======================================================
(PID.TID 0000.0001) // Begin OBCS MONITOR field statistics
(PID.TID 0000.0001) // =======================================================
(PID.TID 0000.0001) %MON obc_N_vVel_max               =  -7.5615799655613E-08
(PID.TID 0000.0001) %MON obc_N_vVel_min               =  -7.5615799655614E-08
(PID.TID 0000.0001) %MON obc_N_vVel_mean              =  -7.5615799655613E-08
(PID.TID 0000.0001) %MON obc_N_vVel_sd                =  -3.5498740734946E-29
(PID.TID 0000.0001) %MON obc_N_vVel_Int               =  -4.9906427772704E+00
(PID.TID 0000.0001) // =======================================================
(PID.TID 0000.0001) // End OBCS MONITOR field statistics
(PID.TID 0000.0001) // =======================================================
 cg2d: Sum(rhs),rhsMax =   3.01160938489535E+00  4.53049800221575E+02
(PID.TID 0000.0001)      cg2d_init_res =   1.40402053004649E-06
(PID.TID 0000.0001)      cg2d_iters(min,last) =      -1      70
(PID.TID 0000.0001)      cg2d_last_res =   9.14653985671841E-12
(PID.TID 0000.0001) // =======================================================
(PID.TID 0000.0001) // Begin MONITOR dynamic field statistics
(PID.TID 0000.0001) // =======================================================
(PID.TID 0000.0001) %MON time_tsnumber                =                   539
(PID.TID 0000.0001) %MON time_secondsf                =   5.3900000000000E+04
(PID.TID 0000.0001) %MON dynstat_eta_max              =   5.7969695857727E+00
(PID.TID 0000.0001) %MON dynstat_eta_min              =  -1.4175844482900E+01
(PID.TID 0000.0001) %MON dynstat_eta_mean             =  -2.5266833892079E+00
(PID.TID 0000.0001) %MON dynstat_eta_sd               =   4.9418527447089E+00
(PID.TID 0000.0001) %MON dynstat_eta_del2             =   1.9058113800162E-01
(PID.TID 0000.0001) %MON dynstat_uvel_max             =   2.2569635380592E-03
(PID.TID 0000.0001) %MON dynstat_uvel_min             =  -5.7567012723121E-03
(PID.TID 0000.0001) %MON dynstat_uvel_mean            =  -1.8283164373660E-09
(PID.TID 0000.0001) %MON dynstat_uvel_sd              =   1.8455068984750E-04
(PID.TID 0000.0001) %MON dynstat_uvel_del2            =   3.2346031355399E-07
(PID.TID 0000.0001) %MON dynstat_vvel_max             =   5.7013776439148E-03
(PID.TID 0000.0001) %MON dynstat_vvel_min             =  -1.8633953143530E-03
(PID.TID 0000.0001) %MON dynstat_vvel_mean            =  -6.5795314938803E-08
(PID.TID 0000.0001) %MON dynstat_vvel_sd              =   1.1998273404547E-04
(PID.TID 0000.0001) %MON dynstat_vvel_del2            =   3.2071877268504E-07
(PID.TID 0000.0001) %MON dynstat_wvel_max             =   1.9341064966425E-04
(PID.TID 0000.0001) %MON dynstat_wvel_min             =  -2.1071684864078E-04
(PID.TID 0000.0001) %MON dynstat_wvel_mean            =   1.4768918100861E-10
(PID.TID 0000.0001) %MON dynstat_wvel_sd              =   1.1915884866838E-05
(PID.TID 0000.0001) %MON dynstat_wvel_del2            =   5.4714539333360E-08
(PID.TID 0000.0001) %MON dynstat_theta_max            =   1.2000000000000E+00
(PID.TID 0000.0001) %MON dynstat_theta_min            =  -1.0000000000000E+00
(PID.TID 0000.0001) %MON dynstat_theta_mean           =   5.6539001516891E-01
(PID.TID 0000.0001) %MON dynstat_theta_sd             =   8.4904216447079E-01
(PID.TID 0000.0001) %MON dynstat_theta_del2           =   9.1223231082323E-07
(PID.TID 0000.0001) %MON dynstat_salt_max             =   3.4700000000000E+01
(PID.TID 0000.0001) %MON dynstat_salt_min             =   3.4000000000000E+01
(PID.TID 0000.0001) %MON dynstat_salt_mean            =   3.4498069599226E+01
(PID.TID 0000.0001) %MON dynstat_salt_sd              =   2.7015039013833E-01
(PID.TID 0000.0001) %MON dynstat_salt_del2            =   3.4358861081264E-07
(PID.TID 0000.0001) %MON advcfl_uvel_max              =   5.7567012723121E-04
(PID.TID 0000.0001) %MON advcfl_vvel_max              =   5.7013776439148E-04
(PID.TID 0000.0001) %MON advcfl_wvel_max              =   1.0535842432039E-03
(PID.TID 0000.0001) %MON advcfl_W_hf_max              =   1.0535842432039E-03
(PID.TID 0000.0001) %MON pe_b_mean                    =  -6.8271972433736E-01
(PID.TID 0000.0001) %MON ke_max                       =   1.0381551704847E-05
(PID.TID 0000.0001) %MON ke_mean                      =   2.3907054108805E-08
(PID.TID 0000.0001) %MON ke_vol                       =   4.6182914866339E+12
(PID.TID 0000.0001) // =======================================================
(PID.TID 0000.0001) // End MONITOR dynamic field statistics
(PID.TID 0000.0001) // =======================================================
(PID.TID 0000.0001) // =======================================================
(PID.TID 0000.0001) // Begin OBCS MONITOR field statistics
(PID.TID 0000.0001) // =======================================================
(PID.TID 0000.0001) %MON obc_N_vVel_max               =  -7.6005819314285E-08
(PID.TID 0000.0001) %MON obc_N_vVel_min               =  -7.6005819314287E-08
(PID.TID 0000.0001) %MON obc_N_vVel_mean              =  -7.6005819314285E-08
(PID.TID 0000.0001) %MON obc_N_vVel_sd                =   1.8882932218273E-14
(PID.TID 0000.0001) %MON obc_N_vVel_Int               =  -5.0163840747428E+00
(PID.TID 0000.0001) // =======================================================
(PID.TID 0000.0001) // End OBCS MONITOR field statistics
(PID.TID 0000.0001) // =======================================================
 cg2d: Sum(rhs),rhsMax =   3.01160662609676E+00  4.53049791139944E+02
(PID.TID 0000.0001)      cg2d_init_res =   1.39348984774219E-06
(PID.TID 0000.0001)      cg2d_iters(min,last) =      -1      70
(PID.TID 0000.0001)      cg2d_last_res =   9.17224877552437E-12
(PID.TID 0000.0001) // =======================================================
(PID.TID 0000.0001) // Begin MONITOR dynamic field statistics
(PID.TID 0000.0001) // =======================================================
(PID.TID 0000.0001) %MON time_tsnumber                =                   540
(PID.TID 0000.0001) %MON time_secondsf                =   5.4000000000000E+04
(PID.TID 0000.0001) %MON dynstat_eta_max              =   5.7969722925999E+00
(PID.TID 0000.0001) %MON dynstat_eta_min              =  -1.4175838772655E+01
(PID.TID 0000.0001) %MON dynstat_eta_mean             =  -2.5266810239793E+00
(PID.TID 0000.0001) %MON dynstat_eta_sd               =   4.9418520025985E+00
(PID.TID 0000.0001) %MON dynstat_eta_del2             =   1.9058114191292E-01
(PID.TID 0000.0001) %MON dynstat_uvel_max             =   2.2606054443450E-03
(PID.TID 0000.0001) %MON dynstat_uvel_min             =  -5.7750917776360E-03
(PID.TID 0000.0001) %MON dynstat_uvel_mean            =  -1.8339323349492E-09
(PID.TID 0000.0001) %MON dynstat_uvel_sd              =   1.8489383489411E-04
(PID.TID 0000.0001) %MON dynstat_uvel_del2            =   3.2398799185966E-07
(PID.TID 0000.0001) %MON dynstat_vvel_max             =   5.7151939992977E-03
(PID.TID 0000.0001) %MON dynstat_vvel_min             =  -1.8600366990480E-03
(PID.TID 0000.0001) %MON dynstat_vvel_mean            =  -6.5914596971220E-08
(PID.TID 0000.0001) %MON dynstat_vvel_sd              =   1.1991177748100E-04
(PID.TID 0000.0001) %MON dynstat_vvel_del2            =   3.2048802952161E-07
(PID.TID 0000.0001) %MON dynstat_wvel_max             =   1.9425032284533E-04
(PID.TID 0000.0001) %MON dynstat_wvel_min             =  -2.1142916505039E-04
(PID.TID 0000.0001) %MON dynstat_wvel_mean            =   1.4906731457094E-10
(PID.TID 0000.0001) %MON dynstat_wvel_sd              =   1.1579972150552E-05
(PID.TID 0000.0001) %MON dynstat_wvel_del2            =   5.3753001870515E-08
(PID.TID 0000.0001) %MON dynstat_theta_max            =   1.2000000000000E+00
(PID.TID 0000.0001) %MON dynstat_theta_min            =  -1.0000000000000E+00
(PID.TID 0000.0001) %MON dynstat_theta_mean           =   5.6538976037036E-01
(PID.TID 0000.0001) %MON dynstat_theta_sd             =   8.4904208940484E-01
(PID.TID 0000.0001) %MON dynstat_theta_del2           =   9.1409834754505E-07
(PID.TID 0000.0001) %MON dynstat_salt_max             =   3.4700000000000E+01
(PID.TID 0000.0001) %MON dynstat_salt_min             =   3.4000000000000E+01
(PID.TID 0000.0001) %MON dynstat_salt_mean            =   3.4498069497984E+01
(PID.TID 0000.0001) %MON dynstat_salt_sd              =   2.7015036502634E-01
(PID.TID 0000.0001) %MON dynstat_salt_del2            =   3.4433358013858E-07
(PID.TID 0000.0001) %MON advcfl_uvel_max              =   5.7750917776360E-04
(PID.TID 0000.0001) %MON advcfl_vvel_max              =   5.7151939992977E-04
(PID.TID 0000.0001) %MON advcfl_wvel_max              =   1.0571458252520E-03
(PID.TID 0000.0001) %MON advcfl_W_hf_max              =   1.0571458252520E-03
(PID.TID 0000.0001) %MON pe_b_mean                    =  -6.8271907998449E-01
(PID.TID 0000.0001) %MON ke_max                       =   1.0445497155725E-05
(PID.TID 0000.0001) %MON ke_mean                      =   2.3960738364312E-08
(PID.TID 0000.0001) %MON ke_vol                       =   4.6182915006681E+12
(PID.TID 0000.0001) // =======================================================
(PID.TID 0000.0001) // End MONITOR dynamic field statistics
(PID.TID 0000.0001) // =======================================================
(PID.TID 0000.0001) // =======================================================
(PID.TID 0000.0001) // Begin OBCS MONITOR field statistics
(PID.TID 0000.0001) // =======================================================
(PID.TID 0000.0001) %MON obc_N_vVel_max               =  -7.6232356343355E-08
(PID.TID 0000.0001) %MON obc_N_vVel_min               =  -7.6232356343357E-08
(PID.TID 0000.0001) %MON obc_N_vVel_mean              =  -7.6232356343355E-08
(PID.TID 0000.0001) %MON obc_N_vVel_sd                =   2.2026108523998E-14
(PID.TID 0000.0001) %MON obc_N_vVel_Int               =  -5.0313355186614E+00
(PID.TID 0000.0001) // =======================================================
(PID.TID 0000.0001) // End OBCS MONITOR field statistics
(PID.TID 0000.0001) // =======================================================
 cg2d: Sum(rhs),rhsMax =   3.01160386408148E+00  4.53049782114362E+02
(PID.TID 0000.0001)      cg2d_init_res =   1.38215813587495E-06
(PID.TID 0000.0001)      cg2d_iters(min,last) =      -1      70
(PID.TID 0000.0001)      cg2d_last_res =   9.20033733556612E-12
(PID.TID 0000.0001) // =======================================================
(PID.TID 0000.0001) // Begin MONITOR dynamic field statistics
(PID.TID 0000.0001) // =======================================================
(PID.TID 0000.0001) %MON time_tsnumber                =                   541
(PID.TID 0000.0001) %MON time_secondsf                =   5.4100000000000E+04
(PID.TID 0000.0001) %MON dynstat_eta_max              =   5.7969749986596E+00
(PID.TID 0000.0001) %MON dynstat_eta_min              =  -1.4175833069291E+01
(PID.TID 0000.0001) %MON dynstat_eta_mean             =  -2.5266786563646E+00
(PID.TID 0000.0001) %MON dynstat_eta_sd               =   4.9418512599068E+00
(PID.TID 0000.0001) %MON dynstat_eta_del2             =   1.9058114583098E-01
(PID.TID 0000.0001) %MON dynstat_uvel_max             =   2.2642561219381E-03
(PID.TID 0000.0001) %MON dynstat_uvel_min             =  -5.7935267028171E-03
(PID.TID 0000.0001) %MON dynstat_uvel_mean            =  -1.8395663226442E-09
(PID.TID 0000.0001) %MON dynstat_uvel_sd              =   1.8523710790744E-04
(PID.TID 0000.0001) %MON dynstat_uvel_del2            =   3.2451797475153E-07
(PID.TID 0000.0001) %MON dynstat_vvel_max             =   5.7290268049124E-03
(PID.TID 0000.0001) %MON dynstat_vvel_min             =  -1.8566407749478E-03
(PID.TID 0000.0001) %MON dynstat_vvel_mean            =  -6.5851500560388E-08
(PID.TID 0000.0001) %MON dynstat_vvel_sd              =   1.1985320016652E-04
(PID.TID 0000.0001) %MON dynstat_vvel_del2            =   3.2026868736749E-07
(PID.TID 0000.0001) %MON dynstat_wvel_max             =   1.9509180255019E-04
(PID.TID 0000.0001) %MON dynstat_wvel_min             =  -2.1214221778743E-04
(PID.TID 0000.0001) %MON dynstat_wvel_mean            =   1.5045795804304E-10
(PID.TID 0000.0001) %MON dynstat_wvel_sd              =   1.1247914007635E-05
(PID.TID 0000.0001) %MON dynstat_wvel_del2            =   5.2713857138536E-08
(PID.TID 0000.0001) %MON dynstat_theta_max            =   1.2000000000000E+00
(PID.TID 0000.0001) %MON dynstat_theta_min            =  -1.0000000000000E+00
(PID.TID 0000.0001) %MON dynstat_theta_mean           =   5.6538950537085E-01
(PID.TID 0000.0001) %MON dynstat_theta_sd             =   8.4904201417253E-01
(PID.TID 0000.0001) %MON dynstat_theta_del2           =   9.1597870496310E-07
(PID.TID 0000.0001) %MON dynstat_salt_max             =   3.4700000000000E+01
(PID.TID 0000.0001) %MON dynstat_salt_min             =   3.4000000000000E+01
(PID.TID 0000.0001) %MON dynstat_salt_mean            =   3.4498069396658E+01
(PID.TID 0000.0001) %MON dynstat_salt_sd              =   2.7015033984768E-01
(PID.TID 0000.0001) %MON dynstat_salt_del2            =   3.4508254851485E-07
(PID.TID 0000.0001) %MON advcfl_uvel_max              =   5.7935267028171E-04
(PID.TID 0000.0001) %MON advcfl_vvel_max              =   5.7290268049124E-04
(PID.TID 0000.0001) %MON advcfl_wvel_max              =   1.0607110889371E-03
(PID.TID 0000.0001) %MON advcfl_W_hf_max              =   1.0607110889371E-03
(PID.TID 0000.0001) %MON pe_b_mean                    =  -6.8271843489734E-01
(PID.TID 0000.0001) %MON ke_max                       =   1.0509807936948E-05
(PID.TID 0000.0001) %MON ke_mean                      =   2.4016050002936E-08
(PID.TID 0000.0001) %MON ke_vol                       =   4.6182915147176E+12
(PID.TID 0000.0001) // =======================================================
(PID.TID 0000.0001) // End MONITOR dynamic field statistics
(PID.TID 0000.0001) // =======================================================
(PID.TID 0000.0001) // =======================================================
(PID.TID 0000.0001) // Begin OBCS MONITOR field statistics
(PID.TID 0000.0001) // =======================================================
(PID.TID 0000.0001) %MON obc_N_vVel_max               =  -7.6291535489726E-08
(PID.TID 0000.0001) %MON obc_N_vVel_min               =  -7.6291535489728E-08
(PID.TID 0000.0001) %MON obc_N_vVel_mean              =  -7.6291535489728E-08
(PID.TID 0000.0001) %MON obc_N_vVel_sd                =  -2.4533574152373E-28
(PID.TID 0000.0001) %MON obc_N_vVel_Int               =  -5.0352413423220E+00
(PID.TID 0000.0001) // =======================================================
(PID.TID 0000.0001) // End OBCS MONITOR field statistics
(PID.TID 0000.0001) // =======================================================
 cg2d: Sum(rhs),rhsMax =   3.01160109911355E+00  4.53049773137471E+02
(PID.TID 0000.0001)      cg2d_init_res =   1.37052888923285E-06
(PID.TID 0000.0001)      cg2d_iters(min,last) =      -1      70
(PID.TID 0000.0001)      cg2d_last_res =   9.22915448426092E-12
(PID.TID 0000.0001) // =======================================================
(PID.TID 0000.0001) // Begin MONITOR dynamic field statistics
(PID.TID 0000.0001) // =======================================================
(PID.TID 0000.0001) %MON time_tsnumber                =                   542
(PID.TID 0000.0001) %MON time_secondsf                =   5.4200000000000E+04
(PID.TID 0000.0001) %MON dynstat_eta_max              =   5.7969777036858E+00
(PID.TID 0000.0001) %MON dynstat_eta_min              =  -1.4175827373290E+01
(PID.TID 0000.0001) %MON dynstat_eta_mean             =  -2.5266762865444E+00
(PID.TID 0000.0001) %MON dynstat_eta_sd               =   4.9418505166889E+00
(PID.TID 0000.0001) %MON dynstat_eta_del2             =   1.9058114975571E-01
(PID.TID 0000.0001) %MON dynstat_uvel_max             =   2.2679155892700E-03
(PID.TID 0000.0001) %MON dynstat_uvel_min             =  -5.8120061842590E-03
(PID.TID 0000.0001) %MON dynstat_uvel_mean            =  -1.8449251052536E-09
(PID.TID 0000.0001) %MON dynstat_uvel_sd              =   1.8558048128275E-04
(PID.TID 0000.0001) %MON dynstat_uvel_del2            =   3.2505009453629E-07
(PID.TID 0000.0001) %MON dynstat_vvel_max             =   5.7428761511960E-03
(PID.TID 0000.0001) %MON dynstat_vvel_min             =  -1.8532076969837E-03
(PID.TID 0000.0001) %MON dynstat_vvel_mean            =  -6.5611861683805E-08
(PID.TID 0000.0001) %MON dynstat_vvel_sd              =   1.1981555322982E-04
(PID.TID 0000.0001) %MON dynstat_vvel_del2            =   3.2009065303882E-07
(PID.TID 0000.0001) %MON dynstat_wvel_max             =   1.9593509170962E-04
(PID.TID 0000.0001) %MON dynstat_wvel_min             =  -2.1285600441257E-04
(PID.TID 0000.0001) %MON dynstat_wvel_mean            =   1.5181939309735E-10
(PID.TID 0000.0001) %MON dynstat_wvel_sd              =   1.0935957668164E-05
(PID.TID 0000.0001) %MON dynstat_wvel_del2            =   5.1641769651654E-08
(PID.TID 0000.0001) %MON dynstat_theta_max            =   1.2000000000000E+00
(PID.TID 0000.0001) %MON dynstat_theta_min            =  -1.0000000000000E+00
(PID.TID 0000.0001) %MON dynstat_theta_mean           =   5.6538925016804E-01
(PID.TID 0000.0001) %MON dynstat_theta_sd             =   8.4904193878623E-01
(PID.TID 0000.0001) %MON dynstat_theta_del2           =   9.1782667487632E-07
(PID.TID 0000.0001) %MON dynstat_salt_max             =   3.4700000000000E+01
(PID.TID 0000.0001) %MON dynstat_salt_min             =   3.4000000000000E+01
(PID.TID 0000.0001) %MON dynstat_salt_mean            =   3.4498069295245E+01
(PID.TID 0000.0001) %MON dynstat_salt_sd              =   2.7015031460628E-01
(PID.TID 0000.0001) %MON dynstat_salt_del2            =   3.4582296058803E-07
(PID.TID 0000.0001) %MON advcfl_uvel_max              =   5.8120061842590E-04
(PID.TID 0000.0001) %MON advcfl_vvel_max              =   5.7428761511960E-04
(PID.TID 0000.0001) %MON advcfl_wvel_max              =   1.0642800220629E-03
(PID.TID 0000.0001) %MON advcfl_W_hf_max              =   1.0642800220629E-03
(PID.TID 0000.0001) %MON pe_b_mean                    =  -6.8271778911190E-01
(PID.TID 0000.0001) %MON ke_max                       =   1.0574486105180E-05
(PID.TID 0000.0001) %MON ke_mean                      =   2.4074006439810E-08
(PID.TID 0000.0001) %MON ke_vol                       =   4.6182915287812E+12
(PID.TID 0000.0001) // =======================================================
(PID.TID 0000.0001) // End MONITOR dynamic field statistics
(PID.TID 0000.0001) // =======================================================
(PID.TID 0000.0001) // =======================================================
(PID.TID 0000.0001) // Begin OBCS MONITOR field statistics
(PID.TID 0000.0001) // =======================================================
(PID.TID 0000.0001) %MON obc_N_vVel_max               =  -7.6185058125957E-08
(PID.TID 0000.0001) %MON obc_N_vVel_min               =  -7.6185058125958E-08
(PID.TID 0000.0001) %MON obc_N_vVel_mean              =  -7.6185058125958E-08
(PID.TID 0000.0001) %MON obc_N_vVel_sd                =  -1.4909471108677E-28
(PID.TID 0000.0001) %MON obc_N_vVel_Int               =  -5.0282138363132E+00
(PID.TID 0000.0001) // =======================================================
(PID.TID 0000.0001) // End OBCS MONITOR field statistics
(PID.TID 0000.0001) // =======================================================
 cg2d: Sum(rhs),rhsMax =   3.01159833145645E+00  4.53049764200990E+02
(PID.TID 0000.0001)      cg2d_init_res =   1.35917087997168E-06
(PID.TID 0000.0001)      cg2d_iters(min,last) =      -1      70
(PID.TID 0000.0001)      cg2d_last_res =   9.25620349015271E-12
(PID.TID 0000.0001) // =======================================================
(PID.TID 0000.0001) // Begin MONITOR dynamic field statistics
(PID.TID 0000.0001) // =======================================================
(PID.TID 0000.0001) %MON time_tsnumber                =                   543
(PID.TID 0000.0001) %MON time_secondsf                =   5.4300000000000E+04
(PID.TID 0000.0001) %MON dynstat_eta_max              =   5.7969804074257E+00
(PID.TID 0000.0001) %MON dynstat_eta_min              =  -1.4175821685107E+01
(PID.TID 0000.0001) %MON dynstat_eta_mean             =  -2.5266739146934E+00
(PID.TID 0000.0001) %MON dynstat_eta_sd               =   4.9418497729940E+00
(PID.TID 0000.0001) %MON dynstat_eta_del2             =   1.9058115368702E-01
(PID.TID 0000.0001) %MON dynstat_uvel_max             =   2.2715838638838E-03
(PID.TID 0000.0001) %MON dynstat_uvel_min             =  -5.8305303580051E-03
(PID.TID 0000.0001) %MON dynstat_uvel_mean            =  -1.8497202981503E-09
(PID.TID 0000.0001) %MON dynstat_uvel_sd              =   1.8592393362623E-04
(PID.TID 0000.0001) %MON dynstat_uvel_del2            =   3.2558420591065E-07
(PID.TID 0000.0001) %MON dynstat_vvel_max             =   5.7567421272653E-03
(PID.TID 0000.0001) %MON dynstat_vvel_min             =  -1.8497376246085E-03
(PID.TID 0000.0001) %MON dynstat_vvel_mean            =  -6.5207189491963E-08
(PID.TID 0000.0001) %MON dynstat_vvel_sd              =   1.1980653630348E-04
(PID.TID 0000.0001) %MON dynstat_vvel_del2            =   3.1998305322417E-07
(PID.TID 0000.0001) %MON dynstat_wvel_max             =   1.9678019329558E-04
(PID.TID 0000.0001) %MON dynstat_wvel_min             =  -2.1357052249414E-04
(PID.TID 0000.0001) %MON dynstat_wvel_mean            =   1.5311157292786E-10
(PID.TID 0000.0001) %MON dynstat_wvel_sd              =   1.0661039379327E-05
(PID.TID 0000.0001) %MON dynstat_wvel_del2            =   5.0587720829888E-08
(PID.TID 0000.0001) %MON dynstat_theta_max            =   1.2000000000000E+00
(PID.TID 0000.0001) %MON dynstat_theta_min            =  -1.0000000000000E+00
(PID.TID 0000.0001) %MON dynstat_theta_mean           =   5.6538899475856E-01
(PID.TID 0000.0001) %MON dynstat_theta_sd             =   8.4904186325233E-01
(PID.TID 0000.0001) %MON dynstat_theta_del2           =   9.1959681184360E-07
(PID.TID 0000.0001) %MON dynstat_salt_max             =   3.4700000000000E+01
(PID.TID 0000.0001) %MON dynstat_salt_min             =   3.4000000000000E+01
(PID.TID 0000.0001) %MON dynstat_salt_mean            =   3.4498069193745E+01
(PID.TID 0000.0001) %MON dynstat_salt_sd              =   2.7015028930428E-01
(PID.TID 0000.0001) %MON dynstat_salt_del2            =   3.4654262722569E-07
(PID.TID 0000.0001) %MON advcfl_uvel_max              =   5.8305303580051E-04
(PID.TID 0000.0001) %MON advcfl_vvel_max              =   5.7567421272653E-04
(PID.TID 0000.0001) %MON advcfl_wvel_max              =   1.0678526124707E-03
(PID.TID 0000.0001) %MON advcfl_W_hf_max              =   1.0678526124707E-03
(PID.TID 0000.0001) %MON pe_b_mean                    =  -6.8271714266199E-01
(PID.TID 0000.0001) %MON ke_max                       =   1.0639533724056E-05
(PID.TID 0000.0001) %MON ke_mean                      =   2.4135523916572E-08
(PID.TID 0000.0001) %MON ke_vol                       =   4.6182915428579E+12
(PID.TID 0000.0001) // =======================================================
(PID.TID 0000.0001) // End MONITOR dynamic field statistics
(PID.TID 0000.0001) // =======================================================
(PID.TID 0000.0001) // =======================================================
(PID.TID 0000.0001) // Begin OBCS MONITOR field statistics
(PID.TID 0000.0001) // =======================================================
(PID.TID 0000.0001) %MON obc_N_vVel_max               =  -7.5920008466324E-08
(PID.TID 0000.0001) %MON obc_N_vVel_min               =  -7.5920008466324E-08
(PID.TID 0000.0001) %MON obc_N_vVel_mean              =  -7.5920008466324E-08
(PID.TID 0000.0001) %MON obc_N_vVel_sd                =   1.6011864169947E-14
(PID.TID 0000.0001) %MON obc_N_vVel_Int               =  -5.0107205587774E+00
(PID.TID 0000.0001) // =======================================================
(PID.TID 0000.0001) // End OBCS MONITOR field statistics
(PID.TID 0000.0001) // =======================================================
 cg2d: Sum(rhs),rhsMax =   3.01159556136355E+00  4.53049755295860E+02
(PID.TID 0000.0001)      cg2d_init_res =   1.34868214336658E-06
(PID.TID 0000.0001)      cg2d_iters(min,last) =      -1      70
(PID.TID 0000.0001)      cg2d_last_res =   9.27794407574310E-12
(PID.TID 0000.0001) // =======================================================
(PID.TID 0000.0001) // Begin MONITOR dynamic field statistics
(PID.TID 0000.0001) // =======================================================
(PID.TID 0000.0001) %MON time_tsnumber                =                   544
(PID.TID 0000.0001) %MON time_secondsf                =   5.4400000000000E+04
(PID.TID 0000.0001) %MON dynstat_eta_max              =   5.7969831096815E+00
(PID.TID 0000.0001) %MON dynstat_eta_min              =  -1.4175816005160E+01
(PID.TID 0000.0001) %MON dynstat_eta_mean             =  -2.5266715409738E+00
(PID.TID 0000.0001) %MON dynstat_eta_sd               =   4.9418490288632E+00
(PID.TID 0000.0001) %MON dynstat_eta_del2             =   1.9058115762483E-01
(PID.TID 0000.0001) %MON dynstat_uvel_max             =   2.2752609624739E-03
(PID.TID 0000.0001) %MON dynstat_uvel_min             =  -5.8490993597538E-03
(PID.TID 0000.0001) %MON dynstat_uvel_mean            =  -1.8536988893152E-09
(PID.TID 0000.0001) %MON dynstat_uvel_sd              =   1.8626745105063E-04
(PID.TID 0000.0001) %MON dynstat_uvel_del2            =   3.2612019135329E-07
(PID.TID 0000.0001) %MON dynstat_vvel_max             =   5.7706248209322E-03
(PID.TID 0000.0001) %MON dynstat_vvel_min             =  -1.8462307215659E-03
(PID.TID 0000.0001) %MON dynstat_vvel_mean            =  -6.4654175781520E-08
(PID.TID 0000.0001) %MON dynstat_vvel_sd              =   1.1983259947739E-04
(PID.TID 0000.0001) %MON dynstat_vvel_del2            =   3.1997263588683E-07
(PID.TID 0000.0001) %MON dynstat_wvel_max             =   1.9762711029537E-04
(PID.TID 0000.0001) %MON dynstat_wvel_min             =  -2.1428576964066E-04
(PID.TID 0000.0001) %MON dynstat_wvel_mean            =   1.5429739365769E-10
(PID.TID 0000.0001) %MON dynstat_wvel_sd              =   1.0439620530921E-05
(PID.TID 0000.0001) %MON dynstat_wvel_del2            =   4.9606856083851E-08
(PID.TID 0000.0001) %MON dynstat_theta_max            =   1.2000000000000E+00
(PID.TID 0000.0001) %MON dynstat_theta_min            =  -1.0000000000000E+00
(PID.TID 0000.0001) %MON dynstat_theta_mean           =   5.6538873913780E-01
(PID.TID 0000.0001) %MON dynstat_theta_sd             =   8.4904178756834E-01
(PID.TID 0000.0001) %MON dynstat_theta_del2           =   9.2124746374212E-07
(PID.TID 0000.0001) %MON dynstat_salt_max             =   3.4700000000000E+01
(PID.TID 0000.0001) %MON dynstat_salt_min             =   3.4000000000000E+01
(PID.TID 0000.0001) %MON dynstat_salt_mean            =   3.4498069092157E+01
(PID.TID 0000.0001) %MON dynstat_salt_sd              =   2.7015026394068E-01
(PID.TID 0000.0001) %MON dynstat_salt_del2            =   3.4723037817269E-07
(PID.TID 0000.0001) %MON advcfl_uvel_max              =   5.8490993597538E-04
(PID.TID 0000.0001) %MON advcfl_vvel_max              =   5.7706248209322E-04
(PID.TID 0000.0001) %MON advcfl_wvel_max              =   1.0714288482033E-03
(PID.TID 0000.0001) %MON advcfl_W_hf_max              =   1.0714288482033E-03
(PID.TID 0000.0001) %MON pe_b_mean                    =  -6.8271649557777E-01
(PID.TID 0000.0001) %MON ke_max                       =   1.0704952864437E-05
(PID.TID 0000.0001) %MON ke_mean                      =   2.4201372086236E-08
(PID.TID 0000.0001) %MON ke_vol                       =   4.6182915569467E+12
(PID.TID 0000.0001) // =======================================================
(PID.TID 0000.0001) // End MONITOR dynamic field statistics
(PID.TID 0000.0001) // =======================================================
(PID.TID 0000.0001) // =======================================================
(PID.TID 0000.0001) // Begin OBCS MONITOR field statistics
(PID.TID 0000.0001) // =======================================================
(PID.TID 0000.0001) %MON obc_N_vVel_max               =  -7.5508529227032E-08
(PID.TID 0000.0001) %MON obc_N_vVel_min               =  -7.5508529227033E-08
(PID.TID 0000.0001) %MON obc_N_vVel_mean              =  -7.5508529227033E-08
(PID.TID 0000.0001) %MON obc_N_vVel_sd                =  -3.8023095631653E-28
(PID.TID 0000.0001) %MON obc_N_vVel_Int               =  -4.9835629289842E+00
(PID.TID 0000.0001) // =======================================================
(PID.TID 0000.0001) // End OBCS MONITOR field statistics
(PID.TID 0000.0001) // =======================================================
 cg2d: Sum(rhs),rhsMax =   3.01159278906819E+00  4.53049746412474E+02
(PID.TID 0000.0001)      cg2d_init_res =   1.33964640084189E-06
(PID.TID 0000.0001)      cg2d_iters(min,last) =      -1      70
(PID.TID 0000.0001)      cg2d_last_res =   9.29107999434128E-12
(PID.TID 0000.0001) // =======================================================
(PID.TID 0000.0001) // Begin MONITOR dynamic field statistics
(PID.TID 0000.0001) // =======================================================
(PID.TID 0000.0001) %MON time_tsnumber                =                   545
(PID.TID 0000.0001) %MON time_secondsf                =   5.4500000000000E+04
(PID.TID 0000.0001) %MON dynstat_eta_max              =   5.7969858102550E+00
(PID.TID 0000.0001) %MON dynstat_eta_min              =  -1.4175810333810E+01
(PID.TID 0000.0001) %MON dynstat_eta_mean             =  -2.5266691655277E+00
(PID.TID 0000.0001) %MON dynstat_eta_sd               =   4.9418482843272E+00
(PID.TID 0000.0001) %MON dynstat_eta_del2             =   1.9058116156912E-01
(PID.TID 0000.0001) %MON dynstat_uvel_max             =   2.2789469007698E-03
(PID.TID 0000.0001) %MON dynstat_uvel_min             =  -5.8677133251095E-03
(PID.TID 0000.0001) %MON dynstat_uvel_mean            =  -1.8566425817260E-09
(PID.TID 0000.0001) %MON dynstat_uvel_sd              =   1.8661102817648E-04
(PID.TID 0000.0001) %MON dynstat_uvel_del2            =   3.2665796529537E-07
(PID.TID 0000.0001) %MON dynstat_vvel_max             =   5.7845243188615E-03
(PID.TID 0000.0001) %MON dynstat_vvel_min             =  -1.8426871554906E-03
(PID.TID 0000.0001) %MON dynstat_vvel_mean            =  -6.3974082769004E-08
(PID.TID 0000.0001) %MON dynstat_vvel_sd              =   1.1989859723754E-04
(PID.TID 0000.0001) %MON dynstat_vvel_del2            =   3.2008220384099E-07
(PID.TID 0000.0001) %MON dynstat_wvel_max             =   1.9847584572074E-04
(PID.TID 0000.0001) %MON dynstat_wvel_min             =  -2.1500174349391E-04
(PID.TID 0000.0001) %MON dynstat_wvel_mean            =   1.5534414727528E-10
(PID.TID 0000.0001) %MON dynstat_wvel_sd              =   1.0286167240153E-05
(PID.TID 0000.0001) %MON dynstat_wvel_del2            =   4.8755326819713E-08
(PID.TID 0000.0001) %MON dynstat_theta_max            =   1.2000000000000E+00
(PID.TID 0000.0001) %MON dynstat_theta_min            =  -1.0000000000000E+00
(PID.TID 0000.0001) %MON dynstat_theta_mean           =   5.6538848329981E-01
(PID.TID 0000.0001) %MON dynstat_theta_sd             =   8.4904171171805E-01
(PID.TID 0000.0001) %MON dynstat_theta_del2           =   9.2274292770044E-07
(PID.TID 0000.0001) %MON dynstat_salt_max             =   3.4700000000000E+01
(PID.TID 0000.0001) %MON dynstat_salt_min             =   3.4000000000000E+01
(PID.TID 0000.0001) %MON dynstat_salt_mean            =   3.4498068990478E+01
(PID.TID 0000.0001) %MON dynstat_salt_sd              =   2.7015023851054E-01
(PID.TID 0000.0001) %MON dynstat_salt_del2            =   3.4787667229604E-07
(PID.TID 0000.0001) %MON advcfl_uvel_max              =   5.8677133251095E-04
(PID.TID 0000.0001) %MON advcfl_vvel_max              =   5.7845243188615E-04
(PID.TID 0000.0001) %MON advcfl_wvel_max              =   1.0750087174695E-03
(PID.TID 0000.0001) %MON advcfl_W_hf_max              =   1.0750087174695E-03
(PID.TID 0000.0001) %MON pe_b_mean                    =  -6.8271584788427E-01
(PID.TID 0000.0001) %MON ke_max                       =   1.0770745605259E-05
(PID.TID 0000.0001) %MON ke_mean                      =   2.4272134788868E-08
(PID.TID 0000.0001) %MON ke_vol                       =   4.6182915710466E+12
(PID.TID 0000.0001) // =======================================================
(PID.TID 0000.0001) // End MONITOR dynamic field statistics
(PID.TID 0000.0001) // =======================================================
(PID.TID 0000.0001) // =======================================================
(PID.TID 0000.0001) // Begin OBCS MONITOR field statistics
(PID.TID 0000.0001) // =======================================================
(PID.TID 0000.0001) %MON obc_N_vVel_max               =  -7.4967340401135E-08
(PID.TID 0000.0001) %MON obc_N_vVel_min               =  -7.4967340401136E-08
(PID.TID 0000.0001) %MON obc_N_vVel_mean              =  -7.4967340401135E-08
(PID.TID 0000.0001) %MON obc_N_vVel_sd                =   1.5536776917933E-14
(PID.TID 0000.0001) %MON obc_N_vVel_Int               =  -4.9478444664749E+00
(PID.TID 0000.0001) // =======================================================
(PID.TID 0000.0001) // End OBCS MONITOR field statistics
(PID.TID 0000.0001) // =======================================================
 cg2d: Sum(rhs),rhsMax =   3.01159001477958E+00  4.53049737540864E+02
(PID.TID 0000.0001)      cg2d_init_res =   1.33260585528255E-06
(PID.TID 0000.0001)      cg2d_iters(min,last) =      -1      70
(PID.TID 0000.0001)      cg2d_last_res =   9.29447764612642E-12
(PID.TID 0000.0001) // =======================================================
(PID.TID 0000.0001) // Begin MONITOR dynamic field statistics
(PID.TID 0000.0001) // =======================================================
(PID.TID 0000.0001) %MON time_tsnumber                =                   546
(PID.TID 0000.0001) %MON time_secondsf                =   5.4600000000000E+04
(PID.TID 0000.0001) %MON dynstat_eta_max              =   5.7969885090150E+00
(PID.TID 0000.0001) %MON dynstat_eta_min              =  -1.4175804671365E+01
(PID.TID 0000.0001) %MON dynstat_eta_mean             =  -2.5266667884751E+00
(PID.TID 0000.0001) %MON dynstat_eta_sd               =   4.9418475394063E+00
(PID.TID 0000.0001) %MON dynstat_eta_del2             =   1.9058116551980E-01
(PID.TID 0000.0001) %MON dynstat_uvel_max             =   2.2826416938475E-03
(PID.TID 0000.0001) %MON dynstat_uvel_min             =  -5.8863723893783E-03
(PID.TID 0000.0001) %MON dynstat_uvel_mean            =  -1.8583571262036E-09
(PID.TID 0000.0001) %MON dynstat_uvel_sd              =   1.8695466879208E-04
(PID.TID 0000.0001) %MON dynstat_uvel_del2            =   3.2719747705857E-07
(PID.TID 0000.0001) %MON dynstat_vvel_max             =   5.7984407070015E-03
(PID.TID 0000.0001) %MON dynstat_vvel_min             =  -1.8391070974948E-03
(PID.TID 0000.0001) %MON dynstat_vvel_mean            =  -6.3191971196786E-08
(PID.TID 0000.0001) %MON dynstat_vvel_sd              =   1.2000751657704E-04
(PID.TID 0000.0001) %MON dynstat_vvel_del2            =   3.2032918775227E-07
(PID.TID 0000.0001) %MON dynstat_wvel_max             =   1.9932640261789E-04
(PID.TID 0000.0001) %MON dynstat_wvel_min             =  -2.1571844172167E-04
(PID.TID 0000.0001) %MON dynstat_wvel_mean            =   1.5622410500357E-10
(PID.TID 0000.0001) %MON dynstat_wvel_sd              =   1.0211461883122E-05
(PID.TID 0000.0001) %MON dynstat_wvel_del2            =   4.8086141553031E-08
(PID.TID 0000.0001) %MON dynstat_theta_max            =   1.2000000000000E+00
(PID.TID 0000.0001) %MON dynstat_theta_min            =  -1.0000000000000E+00
(PID.TID 0000.0001) %MON dynstat_theta_mean           =   5.6538822723751E-01
(PID.TID 0000.0001) %MON dynstat_theta_sd             =   8.4904163570725E-01
(PID.TID 0000.0001) %MON dynstat_theta_del2           =   9.2405584483525E-07
(PID.TID 0000.0001) %MON dynstat_salt_max             =   3.4700000000000E+01
(PID.TID 0000.0001) %MON dynstat_salt_min             =   3.4000000000000E+01
(PID.TID 0000.0001) %MON dynstat_salt_mean            =   3.4498068888707E+01
(PID.TID 0000.0001) %MON dynstat_salt_sd              =   2.7015021301550E-01
(PID.TID 0000.0001) %MON dynstat_salt_del2            =   3.4847416707904E-07
(PID.TID 0000.0001) %MON advcfl_uvel_max              =   5.8863723893783E-04
(PID.TID 0000.0001) %MON advcfl_vvel_max              =   5.7984407070015E-04
(PID.TID 0000.0001) %MON advcfl_wvel_max              =   1.0785922086083E-03
(PID.TID 0000.0001) %MON advcfl_W_hf_max              =   1.0785922086083E-03
(PID.TID 0000.0001) %MON pe_b_mean                    =  -6.8271519960118E-01
(PID.TID 0000.0001) %MON ke_max                       =   1.0836914033246E-05
(PID.TID 0000.0001) %MON ke_mean                      =   2.4348179133410E-08
(PID.TID 0000.0001) %MON ke_vol                       =   4.6182915851568E+12
(PID.TID 0000.0001) // =======================================================
(PID.TID 0000.0001) // End MONITOR dynamic field statistics
(PID.TID 0000.0001) // =======================================================
(PID.TID 0000.0001) // =======================================================
(PID.TID 0000.0001) // Begin OBCS MONITOR field statistics
(PID.TID 0000.0001) // =======================================================
(PID.TID 0000.0001) %MON obc_N_vVel_max               =  -7.4317068825245E-08
(PID.TID 0000.0001) %MON obc_N_vVel_min               =  -7.4317068825247E-08
(PID.TID 0000.0001) %MON obc_N_vVel_mean              =  -7.4317068825245E-08
(PID.TID 0000.0001) %MON obc_N_vVel_sd                =   1.7896299268836E-14
(PID.TID 0000.0001) %MON obc_N_vVel_Int               =  -4.9049265424662E+00
(PID.TID 0000.0001) // =======================================================
(PID.TID 0000.0001) // End OBCS MONITOR field statistics
(PID.TID 0000.0001) // =======================================================
 cg2d: Sum(rhs),rhsMax =   3.01158723867658E+00  4.53049728670941E+02
(PID.TID 0000.0001)      cg2d_init_res =   1.32801416445668E-06
(PID.TID 0000.0001)      cg2d_iters(min,last) =      -1      70
(PID.TID 0000.0001)      cg2d_last_res =   9.29106219932460E-12
(PID.TID 0000.0001) // =======================================================
(PID.TID 0000.0001) // Begin MONITOR dynamic field statistics
(PID.TID 0000.0001) // =======================================================
(PID.TID 0000.0001) %MON time_tsnumber                =                   547
(PID.TID 0000.0001) %MON time_secondsf                =   5.4700000000000E+04
(PID.TID 0000.0001) %MON dynstat_eta_max              =   5.7969912058777E+00
(PID.TID 0000.0001) %MON dynstat_eta_min              =  -1.4175799018059E+01
(PID.TID 0000.0001) %MON dynstat_eta_mean             =  -2.5266644099098E+00
(PID.TID 0000.0001) %MON dynstat_eta_sd               =   4.9418467941099E+00
(PID.TID 0000.0001) %MON dynstat_eta_del2             =   1.9058116947679E-01
(PID.TID 0000.0001) %MON dynstat_uvel_max             =   2.2863453558397E-03
(PID.TID 0000.0001) %MON dynstat_uvel_min             =  -5.9050766878315E-03
(PID.TID 0000.0001) %MON dynstat_uvel_mean            =  -1.8586832561359E-09
(PID.TID 0000.0001) %MON dynstat_uvel_sd              =   1.8729838617159E-04
(PID.TID 0000.0001) %MON dynstat_uvel_del2            =   3.2773871180924E-07
(PID.TID 0000.0001) %MON dynstat_vvel_max             =   5.8123740705045E-03
(PID.TID 0000.0001) %MON dynstat_vvel_min             =  -1.8354907217253E-03
(PID.TID 0000.0001) %MON dynstat_vvel_mean            =  -6.2335742893112E-08
(PID.TID 0000.0001) %MON dynstat_vvel_sd              =   1.2016029788414E-04
(PID.TID 0000.0001) %MON dynstat_vvel_del2            =   3.2072446398213E-07
(PID.TID 0000.0001) %MON dynstat_wvel_max             =   2.0017878402322E-04
(PID.TID 0000.0001) %MON dynstat_wvel_min             =  -2.1643586203180E-04
(PID.TID 0000.0001) %MON dynstat_wvel_mean            =   1.5691552806085E-10
(PID.TID 0000.0001) %MON dynstat_wvel_sd              =   1.0221099809508E-05
(PID.TID 0000.0001) %MON dynstat_wvel_del2            =   4.7644319389557E-08
(PID.TID 0000.0001) %MON dynstat_theta_max            =   1.2000000000000E+00
(PID.TID 0000.0001) %MON dynstat_theta_min            =  -1.0000000000000E+00
(PID.TID 0000.0001) %MON dynstat_theta_mean           =   5.6538797094278E-01
(PID.TID 0000.0001) %MON dynstat_theta_sd             =   8.4904155953130E-01
(PID.TID 0000.0001) %MON dynstat_theta_del2           =   9.2516850240109E-07
(PID.TID 0000.0001) %MON dynstat_salt_max             =   3.4700000000000E+01
(PID.TID 0000.0001) %MON dynstat_salt_min             =   3.4000000000000E+01
(PID.TID 0000.0001) %MON dynstat_salt_mean            =   3.4498068786841E+01
(PID.TID 0000.0001) %MON dynstat_salt_sd              =   2.7015018745436E-01
(PID.TID 0000.0001) %MON dynstat_salt_del2            =   3.4901816333797E-07
(PID.TID 0000.0001) %MON advcfl_uvel_max              =   5.9050766878315E-04
(PID.TID 0000.0001) %MON advcfl_vvel_max              =   5.8123740705045E-04
(PID.TID 0000.0001) %MON advcfl_wvel_max              =   1.0821793101590E-03
(PID.TID 0000.0001) %MON advcfl_W_hf_max              =   1.0821793101590E-03
(PID.TID 0000.0001) %MON pe_b_mean                    =  -6.8271455074218E-01
(PID.TID 0000.0001) %MON ke_max                       =   1.0903460243842E-05
(PID.TID 0000.0001) %MON ke_mean                      =   2.4429634643175E-08
(PID.TID 0000.0001) %MON ke_vol                       =   4.6182915992765E+12
(PID.TID 0000.0001) // =======================================================
(PID.TID 0000.0001) // End MONITOR dynamic field statistics
(PID.TID 0000.0001) // =======================================================
(PID.TID 0000.0001) // =======================================================
(PID.TID 0000.0001) // Begin OBCS MONITOR field statistics
(PID.TID 0000.0001) // =======================================================
(PID.TID 0000.0001) %MON obc_N_vVel_max               =  -7.3581517401992E-08
(PID.TID 0000.0001) %MON obc_N_vVel_min               =  -7.3581517401993E-08
(PID.TID 0000.0001) %MON obc_N_vVel_mean              =  -7.3581517401992E-08
(PID.TID 0000.0001) %MON obc_N_vVel_sd                =   1.2015054958486E-14
(PID.TID 0000.0001) %MON obc_N_vVel_Int               =  -4.8563801485315E+00
(PID.TID 0000.0001) // =======================================================
(PID.TID 0000.0001) // End OBCS MONITOR field statistics
(PID.TID 0000.0001) // =======================================================
 cg2d: Sum(rhs),rhsMax =   3.01158446090199E+00  4.53049719792678E+02
(PID.TID 0000.0001)      cg2d_init_res =   1.32619764429326E-06
(PID.TID 0000.0001)      cg2d_iters(min,last) =      -1      70
(PID.TID 0000.0001)      cg2d_last_res =   9.28735557584852E-12
(PID.TID 0000.0001) // =======================================================
(PID.TID 0000.0001) // Begin MONITOR dynamic field statistics
(PID.TID 0000.0001) // =======================================================
(PID.TID 0000.0001) %MON time_tsnumber                =                   548
(PID.TID 0000.0001) %MON time_secondsf                =   5.4800000000000E+04
(PID.TID 0000.0001) %MON dynstat_eta_max              =   5.7969939007988E+00
(PID.TID 0000.0001) %MON dynstat_eta_min              =  -1.4175793374064E+01
(PID.TID 0000.0001) %MON dynstat_eta_mean             =  -2.5266620298956E+00
(PID.TID 0000.0001) %MON dynstat_eta_sd               =   4.9418460484362E+00
(PID.TID 0000.0001) %MON dynstat_eta_del2             =   1.9058117344005E-01
(PID.TID 0000.0001) %MON dynstat_uvel_max             =   2.2900579002112E-03
(PID.TID 0000.0001) %MON dynstat_uvel_min             =  -5.9238263556667E-03
(PID.TID 0000.0001) %MON dynstat_uvel_mean            =  -1.8575093765791E-09
(PID.TID 0000.0001) %MON dynstat_uvel_sd              =   1.8764220300883E-04
(PID.TID 0000.0001) %MON dynstat_uvel_del2            =   3.2828169038156E-07
(PID.TID 0000.0001) %MON dynstat_vvel_max             =   5.8263244939305E-03
(PID.TID 0000.0001) %MON dynstat_vvel_min             =  -1.8318382047298E-03
(PID.TID 0000.0001) %MON dynstat_vvel_mean            =  -6.1435163390509E-08
(PID.TID 0000.0001) %MON dynstat_vvel_sd              =   1.2035576209241E-04
(PID.TID 0000.0001) %MON dynstat_vvel_del2            =   3.2127151418193E-07
(PID.TID 0000.0001) %MON dynstat_wvel_max             =   2.0103299301839E-04
(PID.TID 0000.0001) %MON dynstat_wvel_min             =  -2.1715400213839E-04
(PID.TID 0000.0001) %MON dynstat_wvel_mean            =   1.5740323903847E-10
(PID.TID 0000.0001) %MON dynstat_wvel_sd              =   1.0314587138299E-05
(PID.TID 0000.0001) %MON dynstat_wvel_del2            =   4.7461993140568E-08
(PID.TID 0000.0001) %MON dynstat_theta_max            =   1.2000000000000E+00
(PID.TID 0000.0001) %MON dynstat_theta_min            =  -1.0000000000000E+00
(PID.TID 0000.0001) %MON dynstat_theta_mean           =   5.6538771440643E-01
(PID.TID 0000.0001) %MON dynstat_theta_sd             =   8.4904148318291E-01
(PID.TID 0000.0001) %MON dynstat_theta_del2           =   9.2607429059183E-07
(PID.TID 0000.0001) %MON dynstat_salt_max             =   3.4700000000000E+01
(PID.TID 0000.0001) %MON dynstat_salt_min             =   3.4000000000000E+01
(PID.TID 0000.0001) %MON dynstat_salt_mean            =   3.4498068684876E+01
(PID.TID 0000.0001) %MON dynstat_salt_sd              =   2.7015016182450E-01
(PID.TID 0000.0001) %MON dynstat_salt_del2            =   3.4950695683286E-07
(PID.TID 0000.0001) %MON advcfl_uvel_max              =   5.9238263556667E-04
(PID.TID 0000.0001) %MON advcfl_vvel_max              =   5.8263244939305E-04
(PID.TID 0000.0001) %MON advcfl_wvel_max              =   1.0857700106920E-03
(PID.TID 0000.0001) %MON advcfl_W_hf_max              =   1.0857700106920E-03
(PID.TID 0000.0001) %MON pe_b_mean                    =  -6.8271390131427E-01
(PID.TID 0000.0001) %MON ke_max                       =   1.0970386341430E-05
(PID.TID 0000.0001) %MON ke_mean                      =   2.4516383775815E-08
(PID.TID 0000.0001) %MON ke_vol                       =   4.6182916134051E+12
(PID.TID 0000.0001) // =======================================================
(PID.TID 0000.0001) // End MONITOR dynamic field statistics
(PID.TID 0000.0001) // =======================================================
(PID.TID 0000.0001) // =======================================================
(PID.TID 0000.0001) // Begin OBCS MONITOR field statistics
(PID.TID 0000.0001) // =======================================================
(PID.TID 0000.0001) %MON obc_N_vVel_max               =  -7.2786826934546E-08
(PID.TID 0000.0001) %MON obc_N_vVel_min               =  -7.2786826934547E-08
(PID.TID 0000.0001) %MON obc_N_vVel_mean              =  -7.2786826934546E-08
(PID.TID 0000.0001) %MON obc_N_vVel_sd                =   8.2366278202312E-15
(PID.TID 0000.0001) %MON obc_N_vVel_Int               =  -4.8039305776800E+00
(PID.TID 0000.0001) // =======================================================
(PID.TID 0000.0001) // End OBCS MONITOR field statistics
(PID.TID 0000.0001) // =======================================================
 cg2d: Sum(rhs),rhsMax =   3.01158168156074E+00  4.53049710896380E+02
(PID.TID 0000.0001)      cg2d_init_res =   1.32733619777903E-06
(PID.TID 0000.0001)      cg2d_iters(min,last) =      -1      70
(PID.TID 0000.0001)      cg2d_last_res =   9.28849916363895E-12
(PID.TID 0000.0001) // =======================================================
(PID.TID 0000.0001) // Begin MONITOR dynamic field statistics
(PID.TID 0000.0001) // =======================================================
(PID.TID 0000.0001) %MON time_tsnumber                =                   549
(PID.TID 0000.0001) %MON time_secondsf                =   5.4900000000000E+04
(PID.TID 0000.0001) %MON dynstat_eta_max              =   5.7969965938038E+00
(PID.TID 0000.0001) %MON dynstat_eta_min              =  -1.4175787739475E+01
(PID.TID 0000.0001) %MON dynstat_eta_mean             =  -2.5266596484665E+00
(PID.TID 0000.0001) %MON dynstat_eta_sd               =   4.9418453023741E+00
(PID.TID 0000.0001) %MON dynstat_eta_del2             =   1.9058117740955E-01
(PID.TID 0000.0001) %MON dynstat_uvel_max             =   2.2937793396256E-03
(PID.TID 0000.0001) %MON dynstat_uvel_min             =  -5.9426215279599E-03
(PID.TID 0000.0001) %MON dynstat_uvel_mean            =  -1.8547554220538E-09
(PID.TID 0000.0001) %MON dynstat_uvel_sd              =   1.8798615097858E-04
(PID.TID 0000.0001) %MON dynstat_uvel_del2            =   3.2882646719791E-07
(PID.TID 0000.0001) %MON dynstat_vvel_max             =   5.8402920615293E-03
(PID.TID 0000.0001) %MON dynstat_vvel_min             =  -1.8281497247434E-03
(PID.TID 0000.0001) %MON dynstat_vvel_mean            =  -6.0520866067100E-08
(PID.TID 0000.0001) %MON dynstat_vvel_sd              =   1.2059065076324E-04
(PID.TID 0000.0001) %MON dynstat_vvel_del2            =   3.2196600082719E-07
(PID.TID 0000.0001) %MON dynstat_wvel_max             =   2.0188903274966E-04
(PID.TID 0000.0001) %MON dynstat_wvel_min             =  -2.1787285977884E-04
(PID.TID 0000.0001) %MON dynstat_wvel_mean            =   1.5767941306933E-10
(PID.TID 0000.0001) %MON dynstat_wvel_sd              =   1.0485325878692E-05
(PID.TID 0000.0001) %MON dynstat_wvel_del2            =   4.7554381368116E-08
(PID.TID 0000.0001) %MON dynstat_theta_max            =   1.2000000000000E+00
(PID.TID 0000.0001) %MON dynstat_theta_min            =  -1.0000000000000E+00
(PID.TID 0000.0001) %MON dynstat_theta_mean           =   5.6538745761850E-01
(PID.TID 0000.0001) %MON dynstat_theta_sd             =   8.4904140664867E-01
(PID.TID 0000.0001) %MON dynstat_theta_del2           =   9.2677886905863E-07
(PID.TID 0000.0001) %MON dynstat_salt_max             =   3.4700000000000E+01
(PID.TID 0000.0001) %MON dynstat_salt_min             =   3.4000000000000E+01
(PID.TID 0000.0001) %MON dynstat_salt_mean            =   3.4498068582810E+01
(PID.TID 0000.0001) %MON dynstat_salt_sd              =   2.7015013612188E-01
(PID.TID 0000.0001) %MON dynstat_salt_del2            =   3.4994212371080E-07
(PID.TID 0000.0001) %MON advcfl_uvel_max              =   5.9426215279599E-04
(PID.TID 0000.0001) %MON advcfl_vvel_max              =   5.8402920615293E-04
(PID.TID 0000.0001) %MON advcfl_wvel_max              =   1.0893642988942E-03
(PID.TID 0000.0001) %MON advcfl_W_hf_max              =   1.0893642988942E-03
(PID.TID 0000.0001) %MON pe_b_mean                    =  -6.8271325131814E-01
(PID.TID 0000.0001) %MON ke_max                       =   1.1037694439312E-05
(PID.TID 0000.0001) %MON ke_mean                      =   2.4608064574994E-08
(PID.TID 0000.0001) %MON ke_vol                       =   4.6182916275424E+12
(PID.TID 0000.0001) // =======================================================
(PID.TID 0000.0001) // End MONITOR dynamic field statistics
(PID.TID 0000.0001) // =======================================================
(PID.TID 0000.0001) // =======================================================
(PID.TID 0000.0001) // Begin OBCS MONITOR field statistics
(PID.TID 0000.0001) // =======================================================
(PID.TID 0000.0001) %MON obc_N_vVel_max               =  -7.1960570382479E-08
(PID.TID 0000.0001) %MON obc_N_vVel_min               =  -7.1960570382481E-08
(PID.TID 0000.0001) %MON obc_N_vVel_mean              =  -7.1960570382479E-08
(PID.TID 0000.0001) %MON obc_N_vVel_sd                =   1.7449937232417E-14
(PID.TID 0000.0001) %MON obc_N_vVel_Int               =  -4.7493976452436E+00
(PID.TID 0000.0001) // =======================================================
(PID.TID 0000.0001) // End OBCS MONITOR field statistics
(PID.TID 0000.0001) // =======================================================
 cg2d: Sum(rhs),rhsMax =   3.01157890071661E+00  4.53049701972770E+02
(PID.TID 0000.0001)      cg2d_init_res =   1.33143006302967E-06
(PID.TID 0000.0001)      cg2d_iters(min,last) =      -1      70
(PID.TID 0000.0001)      cg2d_last_res =   9.29383331738018E-12
(PID.TID 0000.0001) // =======================================================
(PID.TID 0000.0001) // Begin MONITOR dynamic field statistics
(PID.TID 0000.0001) // =======================================================
(PID.TID 0000.0001) %MON time_tsnumber                =                   550
(PID.TID 0000.0001) %MON time_secondsf                =   5.5000000000000E+04
(PID.TID 0000.0001) %MON dynstat_eta_max              =   5.7969992849772E+00
(PID.TID 0000.0001) %MON dynstat_eta_min              =  -1.4175782114323E+01
(PID.TID 0000.0001) %MON dynstat_eta_mean             =  -2.5266572656243E+00
(PID.TID 0000.0001) %MON dynstat_eta_sd               =   4.9418445559018E+00
(PID.TID 0000.0001) %MON dynstat_eta_del2             =   1.9058118138532E-01
(PID.TID 0000.0001) %MON dynstat_uvel_max             =   2.2975096858460E-03
(PID.TID 0000.0001) %MON dynstat_uvel_min             =  -5.9614623397648E-03
(PID.TID 0000.0001) %MON dynstat_uvel_mean            =  -1.8503872089562E-09
(PID.TID 0000.0001) %MON dynstat_uvel_sd              =   1.8833026994983E-04
(PID.TID 0000.0001) %MON dynstat_uvel_del2            =   3.2937312684898E-07
(PID.TID 0000.0001) %MON dynstat_vvel_max             =   5.8542768572378E-03
(PID.TID 0000.0001) %MON dynstat_vvel_min             =  -1.8244254612574E-03
(PID.TID 0000.0001) %MON dynstat_vvel_mean            =  -5.9623345322695E-08
(PID.TID 0000.0001) %MON dynstat_vvel_sd              =   1.2085977825872E-04
(PID.TID 0000.0001) %MON dynstat_vvel_del2            =   3.2279580201928E-07
(PID.TID 0000.0001) %MON dynstat_wvel_max             =   2.0274690638870E-04
(PID.TID 0000.0001) %MON dynstat_wvel_min             =  -2.1859243268079E-04
(PID.TID 0000.0001) %MON dynstat_wvel_mean            =   1.5774347971813E-10
(PID.TID 0000.0001) %MON dynstat_wvel_sd              =   1.0721484456811E-05
(PID.TID 0000.0001) %MON dynstat_wvel_del2            =   4.7917552940477E-08
(PID.TID 0000.0001) %MON dynstat_theta_max            =   1.2000000000000E+00
(PID.TID 0000.0001) %MON dynstat_theta_min            =  -1.0000000000000E+00
(PID.TID 0000.0001) %MON dynstat_theta_mean           =   5.6538720056817E-01
(PID.TID 0000.0001) %MON dynstat_theta_sd             =   8.4904132990660E-01
(PID.TID 0000.0001) %MON dynstat_theta_del2           =   9.2729911790820E-07
(PID.TID 0000.0001) %MON dynstat_salt_max             =   3.4700000000000E+01
(PID.TID 0000.0001) %MON dynstat_salt_min             =   3.4000000000000E+01
(PID.TID 0000.0001) %MON dynstat_salt_mean            =   3.4498068480640E+01
(PID.TID 0000.0001) %MON dynstat_salt_sd              =   2.7015011033929E-01
(PID.TID 0000.0001) %MON dynstat_salt_del2            =   3.5032829590379E-07
(PID.TID 0000.0001) %MON advcfl_uvel_max              =   5.9614623397648E-04
(PID.TID 0000.0001) %MON advcfl_vvel_max              =   5.8542768572378E-04
(PID.TID 0000.0001) %MON advcfl_wvel_max              =   1.0929621634039E-03
(PID.TID 0000.0001) %MON advcfl_W_hf_max              =   1.0929621634039E-03
(PID.TID 0000.0001) %MON pe_b_mean                    =  -6.8271260074779E-01
(PID.TID 0000.0001) %MON ke_max                       =   1.1105386660359E-05
(PID.TID 0000.0001) %MON ke_mean                      =   2.4704085595361E-08
(PID.TID 0000.0001) %MON ke_vol                       =   4.6182916416881E+12
(PID.TID 0000.0001) // =======================================================
(PID.TID 0000.0001) // End MONITOR dynamic field statistics
(PID.TID 0000.0001) // =======================================================
(PID.TID 0000.0001) // =======================================================
(PID.TID 0000.0001) // Begin OBCS MONITOR field statistics
(PID.TID 0000.0001) // =======================================================
(PID.TID 0000.0001) %MON obc_N_vVel_max               =  -7.1130749250413E-08
(PID.TID 0000.0001) %MON obc_N_vVel_min               =  -7.1130749250414E-08
(PID.TID 0000.0001) %MON obc_N_vVel_mean              =  -7.1130749250413E-08
(PID.TID 0000.0001) %MON obc_N_vVel_sd                =   1.3173814904902E-14
(PID.TID 0000.0001) %MON obc_N_vVel_Int               =  -4.6946294505272E+00
(PID.TID 0000.0001) // =======================================================
(PID.TID 0000.0001) // End OBCS MONITOR field statistics
(PID.TID 0000.0001) // =======================================================
 cg2d: Sum(rhs),rhsMax =   3.01157611839168E+00  4.53049693013415E+02
(PID.TID 0000.0001)      cg2d_init_res =   1.33830734276301E-06
(PID.TID 0000.0001)      cg2d_iters(min,last) =      -1      70
(PID.TID 0000.0001)      cg2d_last_res =   9.30091180623390E-12
(PID.TID 0000.0001) // =======================================================
(PID.TID 0000.0001) // Begin MONITOR dynamic field statistics
(PID.TID 0000.0001) // =======================================================
(PID.TID 0000.0001) %MON time_tsnumber                =                   551
(PID.TID 0000.0001) %MON time_secondsf                =   5.5100000000000E+04
(PID.TID 0000.0001) %MON dynstat_eta_max              =   5.7970019744512E+00
(PID.TID 0000.0001) %MON dynstat_eta_min              =  -1.4175776498558E+01
(PID.TID 0000.0001) %MON dynstat_eta_mean             =  -2.5266548813405E+00
(PID.TID 0000.0001) %MON dynstat_eta_sd               =   4.9418438089883E+00
(PID.TID 0000.0001) %MON dynstat_eta_del2             =   1.9058118536738E-01
(PID.TID 0000.0001) %MON dynstat_uvel_max             =   2.3012489501255E-03
(PID.TID 0000.0001) %MON dynstat_uvel_min             =  -5.9803489261459E-03
(PID.TID 0000.0001) %MON dynstat_uvel_mean            =  -1.8444244555997E-09
(PID.TID 0000.0001) %MON dynstat_uvel_sd              =   1.8867460688194E-04
(PID.TID 0000.0001) %MON dynstat_uvel_del2            =   3.2992177937947E-07
(PID.TID 0000.0001) %MON dynstat_vvel_max             =   5.8682789652540E-03
(PID.TID 0000.0001) %MON dynstat_vvel_min             =  -1.8206655944519E-03
(PID.TID 0000.0001) %MON dynstat_vvel_mean            =  -5.8771868902402E-08
(PID.TID 0000.0001) %MON dynstat_vvel_sd              =   1.2115628771666E-04
(PID.TID 0000.0001) %MON dynstat_vvel_del2            =   3.2374151490469E-07
(PID.TID 0000.0001) %MON dynstat_wvel_max             =   2.0360661714678E-04
(PID.TID 0000.0001) %MON dynstat_wvel_min             =  -2.1931271857720E-04
(PID.TID 0000.0001) %MON dynstat_wvel_mean            =   1.5760108982106E-10
(PID.TID 0000.0001) %MON dynstat_wvel_sd              =   1.1007467322756E-05
(PID.TID 0000.0001) %MON dynstat_wvel_del2            =   4.8528542221905E-08
(PID.TID 0000.0001) %MON dynstat_theta_max            =   1.2000000000000E+00
(PID.TID 0000.0001) %MON dynstat_theta_min            =  -1.0000000000000E+00
(PID.TID 0000.0001) %MON dynstat_theta_mean           =   5.6538694324411E-01
(PID.TID 0000.0001) %MON dynstat_theta_sd             =   8.4904125296323E-01
(PID.TID 0000.0001) %MON dynstat_theta_del2           =   9.2766209858841E-07
(PID.TID 0000.0001) %MON dynstat_salt_max             =   3.4700000000000E+01
(PID.TID 0000.0001) %MON dynstat_salt_min             =   3.4000000000000E+01
(PID.TID 0000.0001) %MON dynstat_salt_mean            =   3.4498068378361E+01
(PID.TID 0000.0001) %MON dynstat_salt_sd              =   2.7015008447889E-01
(PID.TID 0000.0001) %MON dynstat_salt_del2            =   3.5067278039054E-07
(PID.TID 0000.0001) %MON advcfl_uvel_max              =   5.9803489261459E-04
(PID.TID 0000.0001) %MON advcfl_vvel_max              =   5.8682789652540E-04
(PID.TID 0000.0001) %MON advcfl_wvel_max              =   1.0965635928860E-03
(PID.TID 0000.0001) %MON advcfl_W_hf_max              =   1.0965635928860E-03
(PID.TID 0000.0001) %MON pe_b_mean                    =  -6.8271194959108E-01
(PID.TID 0000.0001) %MON ke_max                       =   1.1173465137323E-05
(PID.TID 0000.0001) %MON ke_mean                      =   2.4803652600456E-08
(PID.TID 0000.0001) %MON ke_vol                       =   4.6182916558422E+12
(PID.TID 0000.0001) // =======================================================
(PID.TID 0000.0001) // End MONITOR dynamic field statistics
(PID.TID 0000.0001) // =======================================================
(PID.TID 0000.0001) // =======================================================
(PID.TID 0000.0001) // Begin OBCS MONITOR field statistics
(PID.TID 0000.0001) // =======================================================
(PID.TID 0000.0001) %MON obc_N_vVel_max               =  -7.0324822799291E-08
(PID.TID 0000.0001) %MON obc_N_vVel_min               =  -7.0324822799293E-08
(PID.TID 0000.0001) %MON obc_N_vVel_mean              =  -7.0324822799293E-08
(PID.TID 0000.0001) %MON obc_N_vVel_sd                =  -1.8380459091650E-28
(PID.TID 0000.0001) %MON obc_N_vVel_Int               =  -4.6414383047533E+00
(PID.TID 0000.0001) // =======================================================
(PID.TID 0000.0001) // End OBCS MONITOR field statistics
(PID.TID 0000.0001) // =======================================================
 cg2d: Sum(rhs),rhsMax =   3.01157333456842E+00  4.53049684010698E+02
(PID.TID 0000.0001)      cg2d_init_res =   1.34761639074515E-06
(PID.TID 0000.0001)      cg2d_iters(min,last) =      -1      70
(PID.TID 0000.0001)      cg2d_last_res =   9.30953235609368E-12
(PID.TID 0000.0001) // =======================================================
(PID.TID 0000.0001) // Begin MONITOR dynamic field statistics
(PID.TID 0000.0001) // =======================================================
(PID.TID 0000.0001) %MON time_tsnumber                =                   552
(PID.TID 0000.0001) %MON time_secondsf                =   5.5200000000000E+04
(PID.TID 0000.0001) %MON dynstat_eta_max              =   5.7970046624159E+00
(PID.TID 0000.0001) %MON dynstat_eta_min              =  -1.4175770892093E+01
(PID.TID 0000.0001) %MON dynstat_eta_mean             =  -2.5266524955579E+00
(PID.TID 0000.0001) %MON dynstat_eta_sd               =   4.9418430615947E+00
(PID.TID 0000.0001) %MON dynstat_eta_del2             =   1.9058118935568E-01
(PID.TID 0000.0001) %MON dynstat_uvel_max             =   2.3049971428488E-03
(PID.TID 0000.0001) %MON dynstat_uvel_min             =  -5.9992814223548E-03
(PID.TID 0000.0001) %MON dynstat_uvel_mean            =  -1.8369456887441E-09
(PID.TID 0000.0001) %MON dynstat_uvel_sd              =   1.8901921449464E-04
(PID.TID 0000.0001) %MON dynstat_uvel_del2            =   3.3047255375090E-07
(PID.TID 0000.0001) %MON dynstat_vvel_max             =   5.8822984698526E-03
(PID.TID 0000.0001) %MON dynstat_vvel_min             =  -1.8168703045989E-03
(PID.TID 0000.0001) %MON dynstat_vvel_mean            =  -5.7993452312612E-08
(PID.TID 0000.0001) %MON dynstat_vvel_sd              =   1.2147199621849E-04
(PID.TID 0000.0001) %MON dynstat_vvel_del2            =   3.2477740019624E-07
(PID.TID 0000.0001) %MON dynstat_wvel_max             =   2.0446816824918E-04
(PID.TID 0000.0001) %MON dynstat_wvel_min             =  -2.2003371523483E-04
(PID.TID 0000.0001) %MON dynstat_wvel_mean            =   1.5726504825362E-10
(PID.TID 0000.0001) %MON dynstat_wvel_sd              =   1.1325575495918E-05
(PID.TID 0000.0001) %MON dynstat_wvel_del2            =   4.9347760433936E-08
(PID.TID 0000.0001) %MON dynstat_theta_max            =   1.2000000000000E+00
(PID.TID 0000.0001) %MON dynstat_theta_min            =  -1.0000000000000E+00
(PID.TID 0000.0001) %MON dynstat_theta_mean           =   5.6538668563461E-01
(PID.TID 0000.0001) %MON dynstat_theta_sd             =   8.4904117582755E-01
(PID.TID 0000.0001) %MON dynstat_theta_del2           =   9.2790463320391E-07
(PID.TID 0000.0001) %MON dynstat_salt_max             =   3.4700000000000E+01
(PID.TID 0000.0001) %MON dynstat_salt_min             =   3.4000000000000E+01
(PID.TID 0000.0001) %MON dynstat_salt_mean            =   3.4498068275969E+01
(PID.TID 0000.0001) %MON dynstat_salt_sd              =   2.7015005854361E-01
(PID.TID 0000.0001) %MON dynstat_salt_del2            =   3.5098551230095E-07
(PID.TID 0000.0001) %MON advcfl_uvel_max              =   5.9992814223548E-04
(PID.TID 0000.0001) %MON advcfl_vvel_max              =   5.8822984698526E-04
(PID.TID 0000.0001) %MON advcfl_wvel_max              =   1.1001685761741E-03
(PID.TID 0000.0001) %MON advcfl_W_hf_max              =   1.1001685761741E-03
(PID.TID 0000.0001) %MON pe_b_mean                    =  -6.8271129783035E-01
(PID.TID 0000.0001) %MON ke_max                       =   1.1241932013776E-05
(PID.TID 0000.0001) %MON ke_mean                      =   2.4905805950787E-08
(PID.TID 0000.0001) %MON ke_vol                       =   4.6182916700048E+12
(PID.TID 0000.0001) // =======================================================
(PID.TID 0000.0001) // End MONITOR dynamic field statistics
(PID.TID 0000.0001) // =======================================================
(PID.TID 0000.0001) // =======================================================
(PID.TID 0000.0001) // Begin OBCS MONITOR field statistics
(PID.TID 0000.0001) // =======================================================
(PID.TID 0000.0001) %MON obc_N_vVel_max               =  -6.9568893954279E-08
(PID.TID 0000.0001) %MON obc_N_vVel_min               =  -6.9568893954280E-08
(PID.TID 0000.0001) %MON obc_N_vVel_mean              =  -6.9568893954279E-08
(PID.TID 0000.0001) %MON obc_N_vVel_sd                =   1.7153574486020E-14
(PID.TID 0000.0001) %MON obc_N_vVel_Int               =  -4.5915470009824E+00
(PID.TID 0000.0001) // =======================================================
(PID.TID 0000.0001) // End OBCS MONITOR field statistics
(PID.TID 0000.0001) // =======================================================
 cg2d: Sum(rhs),rhsMax =   3.01157054919129E+00  4.53049674958041E+02
(PID.TID 0000.0001)      cg2d_init_res =   1.35886756318244E-06
(PID.TID 0000.0001)      cg2d_iters(min,last) =      -1      70
(PID.TID 0000.0001)      cg2d_last_res =   9.32244201084128E-12
(PID.TID 0000.0001) // =======================================================
(PID.TID 0000.0001) // Begin MONITOR dynamic field statistics
(PID.TID 0000.0001) // =======================================================
(PID.TID 0000.0001) %MON time_tsnumber                =                   553
(PID.TID 0000.0001) %MON time_secondsf                =   5.5300000000000E+04
(PID.TID 0000.0001) %MON dynstat_eta_max              =   5.7970073490973E+00
(PID.TID 0000.0001) %MON dynstat_eta_min              =  -1.4175765294766E+01
(PID.TID 0000.0001) %MON dynstat_eta_mean             =  -2.5266501081932E+00
(PID.TID 0000.0001) %MON dynstat_eta_sd               =   4.9418423136769E+00
(PID.TID 0000.0001) %MON dynstat_eta_del2             =   1.9058119335022E-01
(PID.TID 0000.0001) %MON dynstat_uvel_max             =   2.3087542738782E-03
(PID.TID 0000.0001) %MON dynstat_uvel_min             =  -6.0182599637448E-03
(PID.TID 0000.0001) %MON dynstat_uvel_mean            =  -1.8280806647345E-09
(PID.TID 0000.0001) %MON dynstat_uvel_sd              =   1.8936414970871E-04
(PID.TID 0000.0001) %MON dynstat_uvel_del2            =   3.3102559109393E-07
(PID.TID 0000.0001) %MON dynstat_vvel_max             =   5.8963354558117E-03
(PID.TID 0000.0001) %MON dynstat_vvel_min             =  -1.8130397713652E-03
(PID.TID 0000.0001) %MON dynstat_vvel_mean            =  -5.7312057300965E-08
(PID.TID 0000.0001) %MON dynstat_vvel_sd              =   1.2179780893548E-04
(PID.TID 0000.0001) %MON dynstat_vvel_del2            =   3.2587270730333E-07
(PID.TID 0000.0001) %MON dynstat_wvel_max             =   2.0533156297173E-04
(PID.TID 0000.0001) %MON dynstat_wvel_min             =  -2.2075542054845E-04
(PID.TID 0000.0001) %MON dynstat_wvel_mean            =   1.5675457195665E-10
(PID.TID 0000.0001) %MON dynstat_wvel_sd              =   1.1657514810263E-05
(PID.TID 0000.0001) %MON dynstat_wvel_del2            =   5.0323062800624E-08
(PID.TID 0000.0001) %MON dynstat_theta_max            =   1.2000000000000E+00
(PID.TID 0000.0001) %MON dynstat_theta_min            =  -1.0000000000000E+00
(PID.TID 0000.0001) %MON dynstat_theta_mean           =   5.6538642772777E-01
(PID.TID 0000.0001) %MON dynstat_theta_sd             =   8.4904109848662E-01
(PID.TID 0000.0001) %MON dynstat_theta_del2           =   9.2807167455344E-07
(PID.TID 0000.0001) %MON dynstat_salt_max             =   3.4700000000000E+01
(PID.TID 0000.0001) %MON dynstat_salt_min             =   3.4000000000000E+01
(PID.TID 0000.0001) %MON dynstat_salt_mean            =   3.4498068173462E+01
(PID.TID 0000.0001) %MON dynstat_salt_sd              =   2.7015003252929E-01
(PID.TID 0000.0001) %MON dynstat_salt_del2            =   3.5127856525461E-07
(PID.TID 0000.0001) %MON advcfl_uvel_max              =   6.0182599637448E-04
(PID.TID 0000.0001) %MON advcfl_vvel_max              =   5.8963354558117E-04
(PID.TID 0000.0001) %MON advcfl_wvel_max              =   1.1037771027422E-03
(PID.TID 0000.0001) %MON advcfl_W_hf_max              =   1.1037771027422E-03
(PID.TID 0000.0001) %MON pe_b_mean                    =  -6.8271064544316E-01
(PID.TID 0000.0001) %MON ke_max                       =   1.1310789443971E-05
(PID.TID 0000.0001) %MON ke_mean                      =   2.5009466946796E-08
(PID.TID 0000.0001) %MON ke_vol                       =   4.6182916841764E+12
(PID.TID 0000.0001) // =======================================================
(PID.TID 0000.0001) // End MONITOR dynamic field statistics
(PID.TID 0000.0001) // =======================================================
(PID.TID 0000.0001) // =======================================================
(PID.TID 0000.0001) // Begin OBCS MONITOR field statistics
(PID.TID 0000.0001) // =======================================================
(PID.TID 0000.0001) %MON obc_N_vVel_max               =  -6.8886827612983E-08
(PID.TID 0000.0001) %MON obc_N_vVel_min               =  -6.8886827612984E-08
(PID.TID 0000.0001) %MON obc_N_vVel_mean              =  -6.8886827612983E-08
(PID.TID 0000.0001) %MON obc_N_vVel_sd                =   9.2728549362691E-15
(PID.TID 0000.0001) %MON obc_N_vVel_Int               =  -4.5465306224569E+00
(PID.TID 0000.0001) // =======================================================
(PID.TID 0000.0001) // End OBCS MONITOR field statistics
(PID.TID 0000.0001) // =======================================================
 cg2d: Sum(rhs),rhsMax =   3.01156776216864E+00  4.53049665850024E+02
(PID.TID 0000.0001)      cg2d_init_res =   1.37145186027767E-06
(PID.TID 0000.0001)      cg2d_iters(min,last) =      -1      70
(PID.TID 0000.0001)      cg2d_last_res =   9.34138900440468E-12
(PID.TID 0000.0001) // =======================================================
(PID.TID 0000.0001) // Begin MONITOR dynamic field statistics
(PID.TID 0000.0001) // =======================================================
(PID.TID 0000.0001) %MON time_tsnumber                =                   554
(PID.TID 0000.0001) %MON time_secondsf                =   5.5400000000000E+04
(PID.TID 0000.0001) %MON dynstat_eta_max              =   5.7970100347617E+00
(PID.TID 0000.0001) %MON dynstat_eta_min              =  -1.4175759706384E+01
(PID.TID 0000.0001) %MON dynstat_eta_mean             =  -2.5266477191393E+00
(PID.TID 0000.0001) %MON dynstat_eta_sd               =   4.9418415651859E+00
(PID.TID 0000.0001) %MON dynstat_eta_del2             =   1.9058119735105E-01
(PID.TID 0000.0001) %MON dynstat_uvel_max             =   2.3125203524188E-03
(PID.TID 0000.0001) %MON dynstat_uvel_min             =  -6.0372846859416E-03
(PID.TID 0000.0001) %MON dynstat_uvel_mean            =  -1.8180104185130E-09
(PID.TID 0000.0001) %MON dynstat_uvel_sd              =   1.8970947197129E-04
(PID.TID 0000.0001) %MON dynstat_uvel_del2            =   3.3158103722374E-07
(PID.TID 0000.0001) %MON dynstat_vvel_max             =   5.9103900084059E-03
(PID.TID 0000.0001) %MON dynstat_vvel_min             =  -1.8091741735375E-03
(PID.TID 0000.0001) %MON dynstat_vvel_mean            =  -5.6747843188726E-08
(PID.TID 0000.0001) %MON dynstat_vvel_sd              =   1.2212417878421E-04
(PID.TID 0000.0001) %MON dynstat_vvel_del2            =   3.2699329452716E-07
(PID.TID 0000.0001) %MON dynstat_wvel_max             =   2.0619680459095E-04
(PID.TID 0000.0001) %MON dynstat_wvel_min             =  -2.2147783261091E-04
(PID.TID 0000.0001) %MON dynstat_wvel_mean            =   1.5609420733748E-10
(PID.TID 0000.0001) %MON dynstat_wvel_sd              =   1.1985571618507E-05
(PID.TID 0000.0001) %MON dynstat_wvel_del2            =   5.1394549406678E-08
(PID.TID 0000.0001) %MON dynstat_theta_max            =   1.2000000000000E+00
(PID.TID 0000.0001) %MON dynstat_theta_min            =  -1.0000000000000E+00
(PID.TID 0000.0001) %MON dynstat_theta_mean           =   5.6538616951158E-01
(PID.TID 0000.0001) %MON dynstat_theta_sd             =   8.4904102094000E-01
(PID.TID 0000.0001) %MON dynstat_theta_del2           =   9.2821396930656E-07
(PID.TID 0000.0001) %MON dynstat_salt_max             =   3.4700000000000E+01
(PID.TID 0000.0001) %MON dynstat_salt_min             =   3.4000000000000E+01
(PID.TID 0000.0001) %MON dynstat_salt_mean            =   3.4498068070835E+01
(PID.TID 0000.0001) %MON dynstat_salt_sd              =   2.7015000643564E-01
(PID.TID 0000.0001) %MON dynstat_salt_del2            =   3.5156555772398E-07
(PID.TID 0000.0001) %MON advcfl_uvel_max              =   6.0372846859416E-04
(PID.TID 0000.0001) %MON advcfl_vvel_max              =   5.9103900084059E-04
(PID.TID 0000.0001) %MON advcfl_wvel_max              =   1.1073891630546E-03
(PID.TID 0000.0001) %MON advcfl_W_hf_max              =   1.1073891630546E-03
(PID.TID 0000.0001) %MON pe_b_mean                    =  -6.8270999240275E-01
(PID.TID 0000.0001) %MON ke_max                       =   1.1380039594009E-05
(PID.TID 0000.0001) %MON ke_mean                      =   2.5113490927317E-08
(PID.TID 0000.0001) %MON ke_vol                       =   4.6182916983573E+12
(PID.TID 0000.0001) // =======================================================
(PID.TID 0000.0001) // End MONITOR dynamic field statistics
(PID.TID 0000.0001) // =======================================================
(PID.TID 0000.0001) // =======================================================
(PID.TID 0000.0001) // Begin OBCS MONITOR field statistics
(PID.TID 0000.0001) // =======================================================
(PID.TID 0000.0001) %MON obc_N_vVel_max               =  -6.8299440165296E-08
(PID.TID 0000.0001) %MON obc_N_vVel_min               =  -6.8299440165297E-08
(PID.TID 0000.0001) %MON obc_N_vVel_mean              =  -6.8299440165296E-08
(PID.TID 0000.0001) %MON obc_N_vVel_sd                =   1.4015219063576E-14
(PID.TID 0000.0001) %MON obc_N_vVel_Int               =  -4.5077630509096E+00
(PID.TID 0000.0001) // =======================================================
(PID.TID 0000.0001) // End OBCS MONITOR field statistics
(PID.TID 0000.0001) // =======================================================
 cg2d: Sum(rhs),rhsMax =   3.01156497337637E+00  4.53049656682495E+02
(PID.TID 0000.0001)      cg2d_init_res =   1.38469024171613E-06
(PID.TID 0000.0001)      cg2d_iters(min,last) =      -1      70
(PID.TID 0000.0001)      cg2d_last_res =   9.36510305227906E-12
(PID.TID 0000.0001) // =======================================================
(PID.TID 0000.0001) // Begin MONITOR dynamic field statistics
(PID.TID 0000.0001) // =======================================================
(PID.TID 0000.0001) %MON time_tsnumber                =                   555
(PID.TID 0000.0001) %MON time_secondsf                =   5.5500000000000E+04
(PID.TID 0000.0001) %MON dynstat_eta_max              =   5.7970127197138E+00
(PID.TID 0000.0001) %MON dynstat_eta_min              =  -1.4175754126719E+01
(PID.TID 0000.0001) %MON dynstat_eta_mean             =  -2.5266453282689E+00
(PID.TID 0000.0001) %MON dynstat_eta_sd               =   4.9418408160727E+00
(PID.TID 0000.0001) %MON dynstat_eta_del2             =   1.9058120135832E-01
(PID.TID 0000.0001) %MON dynstat_uvel_max             =   2.3162953869758E-03
(PID.TID 0000.0001) %MON dynstat_uvel_min             =  -6.0563557244828E-03
(PID.TID 0000.0001) %MON dynstat_uvel_mean            =  -1.8069450405603E-09
(PID.TID 0000.0001) %MON dynstat_uvel_sd              =   1.9005524154174E-04
(PID.TID 0000.0001) %MON dynstat_uvel_del2            =   3.3213903506151E-07
(PID.TID 0000.0001) %MON dynstat_vvel_max             =   5.9244622136012E-03
(PID.TID 0000.0001) %MON dynstat_vvel_min             =  -1.8052736888734E-03
(PID.TID 0000.0001) %MON dynstat_vvel_mean            =  -5.6316540477095E-08
(PID.TID 0000.0001) %MON dynstat_vvel_sd              =   1.2244158642351E-04
(PID.TID 0000.0001) %MON dynstat_vvel_del2            =   3.2810344162369E-07
(PID.TID 0000.0001) %MON dynstat_wvel_max             =   2.0706389640342E-04
(PID.TID 0000.0001) %MON dynstat_wvel_min             =  -2.2220094995011E-04
(PID.TID 0000.0001) %MON dynstat_wvel_mean            =   1.5531301165592E-10
(PID.TID 0000.0001) %MON dynstat_wvel_sd              =   1.2293426522879E-05
(PID.TID 0000.0001) %MON dynstat_wvel_del2            =   5.2499247294144E-08
(PID.TID 0000.0001) %MON dynstat_theta_max            =   1.2000000000000E+00
(PID.TID 0000.0001) %MON dynstat_theta_min            =  -1.0000000000000E+00
(PID.TID 0000.0001) %MON dynstat_theta_mean           =   5.6538591097405E-01
(PID.TID 0000.0001) %MON dynstat_theta_sd             =   8.4904094320424E-01
(PID.TID 0000.0001) %MON dynstat_theta_del2           =   9.2838579733567E-07
(PID.TID 0000.0001) %MON dynstat_salt_max             =   3.4700000000000E+01
(PID.TID 0000.0001) %MON dynstat_salt_min             =   3.4000000000000E+01
(PID.TID 0000.0001) %MON dynstat_salt_mean            =   3.4498067968085E+01
(PID.TID 0000.0001) %MON dynstat_salt_sd              =   2.7014998026818E-01
(PID.TID 0000.0001) %MON dynstat_salt_del2            =   3.5186100844139E-07
(PID.TID 0000.0001) %MON advcfl_uvel_max              =   6.0563557244828E-04
(PID.TID 0000.0001) %MON advcfl_vvel_max              =   5.9244622136012E-04
(PID.TID 0000.0001) %MON advcfl_wvel_max              =   1.1110047497505E-03
(PID.TID 0000.0001) %MON advcfl_W_hf_max              =   1.1110047497505E-03
(PID.TID 0000.0001) %MON pe_b_mean                    =  -6.8270933867925E-01
(PID.TID 0000.0001) %MON ke_max                       =   1.1449684640386E-05
(PID.TID 0000.0001) %MON ke_mean                      =   2.5216724499538E-08
(PID.TID 0000.0001) %MON ke_vol                       =   4.6182917125483E+12
(PID.TID 0000.0001) // =======================================================
(PID.TID 0000.0001) // End MONITOR dynamic field statistics
(PID.TID 0000.0001) // =======================================================
(PID.TID 0000.0001) // =======================================================
(PID.TID 0000.0001) // Begin OBCS MONITOR field statistics
(PID.TID 0000.0001) // =======================================================
(PID.TID 0000.0001) %MON obc_N_vVel_max               =  -6.7823855693580E-08
(PID.TID 0000.0001) %MON obc_N_vVel_min               =  -6.7823855693580E-08
(PID.TID 0000.0001) %MON obc_N_vVel_mean              =  -6.7823855693580E-08
(PID.TID 0000.0001) %MON obc_N_vVel_sd                =  -3.2343297114061E-29
(PID.TID 0000.0001) %MON obc_N_vVel_Int               =  -4.4763744757763E+00
(PID.TID 0000.0001) // =======================================================
(PID.TID 0000.0001) // End OBCS MONITOR field statistics
(PID.TID 0000.0001) // =======================================================
 cg2d: Sum(rhs),rhsMax =   3.01156218266165E+00  4.53049647452606E+02
(PID.TID 0000.0001)      cg2d_init_res =   1.39785882946030E-06
(PID.TID 0000.0001)      cg2d_iters(min,last) =      -1      70
(PID.TID 0000.0001)      cg2d_last_res =   9.39156937641332E-12
(PID.TID 0000.0001) // =======================================================
(PID.TID 0000.0001) // Begin MONITOR dynamic field statistics
(PID.TID 0000.0001) // =======================================================
(PID.TID 0000.0001) %MON time_tsnumber                =                   556
(PID.TID 0000.0001) %MON time_secondsf                =   5.5600000000000E+04
(PID.TID 0000.0001) %MON dynstat_eta_max              =   5.7970154042685E+00
(PID.TID 0000.0001) %MON dynstat_eta_min              =  -1.4175748555531E+01
(PID.TID 0000.0001) %MON dynstat_eta_mean             =  -2.5266429354379E+00
(PID.TID 0000.0001) %MON dynstat_eta_sd               =   4.9418400662857E+00
(PID.TID 0000.0001) %MON dynstat_eta_del2             =   1.9058120537212E-01
(PID.TID 0000.0001) %MON dynstat_uvel_max             =   2.3200793856955E-03
(PID.TID 0000.0001) %MON dynstat_uvel_min             =  -6.0754732150583E-03
(PID.TID 0000.0001) %MON dynstat_uvel_mean            =  -1.7951168544164E-09
(PID.TID 0000.0001) %MON dynstat_uvel_sd              =   1.9040151781080E-04
(PID.TID 0000.0001) %MON dynstat_uvel_del2            =   3.3269971724648E-07
(PID.TID 0000.0001) %MON dynstat_vvel_max             =   5.9385521582436E-03
(PID.TID 0000.0001) %MON dynstat_vvel_min             =  -1.8013384936451E-03
(PID.TID 0000.0001) %MON dynstat_vvel_mean            =  -5.6028966822419E-08
(PID.TID 0000.0001) %MON dynstat_vvel_sd              =   1.2274101550526E-04
(PID.TID 0000.0001) %MON dynstat_vvel_del2            =   3.2916774631737E-07
(PID.TID 0000.0001) %MON dynstat_wvel_max             =   2.0793284177118E-04
(PID.TID 0000.0001) %MON dynstat_wvel_min             =  -2.2292477107790E-04
(PID.TID 0000.0001) %MON dynstat_wvel_mean            =   1.5444349326784E-10
(PID.TID 0000.0001) %MON dynstat_wvel_sd              =   1.2566665124677E-05
(PID.TID 0000.0001) %MON dynstat_wvel_del2            =   5.3575119746761E-08
(PID.TID 0000.0001) %MON dynstat_theta_max            =   1.2000000000000E+00
(PID.TID 0000.0001) %MON dynstat_theta_min            =  -1.0000000000000E+00
(PID.TID 0000.0001) %MON dynstat_theta_mean           =   5.6538565210324E-01
(PID.TID 0000.0001) %MON dynstat_theta_sd             =   8.4904086529617E-01
(PID.TID 0000.0001) %MON dynstat_theta_del2           =   9.2864202795773E-07
(PID.TID 0000.0001) %MON dynstat_salt_max             =   3.4700000000000E+01
(PID.TID 0000.0001) %MON dynstat_salt_min             =   3.4000000000000E+01
(PID.TID 0000.0001) %MON dynstat_salt_mean            =   3.4498067865207E+01
(PID.TID 0000.0001) %MON dynstat_salt_sd              =   2.7014995403200E-01
(PID.TID 0000.0001) %MON dynstat_salt_del2            =   3.5217953478403E-07
(PID.TID 0000.0001) %MON advcfl_uvel_max              =   6.0754732150583E-04
(PID.TID 0000.0001) %MON advcfl_vvel_max              =   5.9385521582436E-04
(PID.TID 0000.0001) %MON advcfl_wvel_max              =   1.1146238553895E-03
(PID.TID 0000.0001) %MON advcfl_W_hf_max              =   1.1146238553895E-03
(PID.TID 0000.0001) %MON pe_b_mean                    =  -6.8270868423989E-01
(PID.TID 0000.0001) %MON ke_max                       =   1.1519726771234E-05
(PID.TID 0000.0001) %MON ke_mean                      =   2.5318064001496E-08
(PID.TID 0000.0001) %MON ke_vol                       =   4.6182917267501E+12
(PID.TID 0000.0001) // =======================================================
(PID.TID 0000.0001) // End MONITOR dynamic field statistics
(PID.TID 0000.0001) // =======================================================
(PID.TID 0000.0001) // =======================================================
(PID.TID 0000.0001) // Begin OBCS MONITOR field statistics
(PID.TID 0000.0001) // =======================================================
(PID.TID 0000.0001) %MON obc_N_vVel_max               =  -6.7472985661138E-08
(PID.TID 0000.0001) %MON obc_N_vVel_min               =  -6.7472985661141E-08
(PID.TID 0000.0001) %MON obc_N_vVel_mean              =  -6.7472985661141E-08
(PID.TID 0000.0001) %MON obc_N_vVel_sd                =  -3.3289930200327E-28
(PID.TID 0000.0001) %MON obc_N_vVel_Int               =  -4.4532170536353E+00
(PID.TID 0000.0001) // =======================================================
(PID.TID 0000.0001) // End OBCS MONITOR field statistics
(PID.TID 0000.0001) // =======================================================
 cg2d: Sum(rhs),rhsMax =   3.01155938985574E+00  4.53049638158902E+02
(PID.TID 0000.0001)      cg2d_init_res =   1.41025149242509E-06
(PID.TID 0000.0001)      cg2d_iters(min,last) =      -1      70
(PID.TID 0000.0001)      cg2d_last_res =   9.41919608939764E-12
(PID.TID 0000.0001) // =======================================================
(PID.TID 0000.0001) // Begin MONITOR dynamic field statistics
(PID.TID 0000.0001) // =======================================================
(PID.TID 0000.0001) %MON time_tsnumber                =                   557
(PID.TID 0000.0001) %MON time_secondsf                =   5.5700000000000E+04
(PID.TID 0000.0001) %MON dynstat_eta_max              =   5.7970180887568E+00
(PID.TID 0000.0001) %MON dynstat_eta_min              =  -1.4175742992540E+01
(PID.TID 0000.0001) %MON dynstat_eta_mean             =  -2.5266405404966E+00
(PID.TID 0000.0001) %MON dynstat_eta_sd               =   4.9418393157751E+00
(PID.TID 0000.0001) %MON dynstat_eta_del2             =   1.9058120939260E-01
(PID.TID 0000.0001) %MON dynstat_uvel_max             =   2.3238723561114E-03
(PID.TID 0000.0001) %MON dynstat_uvel_min             =  -6.0946372933222E-03
(PID.TID 0000.0001) %MON dynstat_uvel_mean            =  -1.7827708006384E-09
(PID.TID 0000.0001) %MON dynstat_uvel_sd              =   1.9074835773091E-04
(PID.TID 0000.0001) %MON dynstat_uvel_del2            =   3.3326319942723E-07
(PID.TID 0000.0001) %MON dynstat_vvel_max             =   5.9526599301540E-03
(PID.TID 0000.0001) %MON dynstat_vvel_min             =  -1.7973687625901E-03
(PID.TID 0000.0001) %MON dynstat_vvel_mean            =  -5.5890729370240E-08
(PID.TID 0000.0001) %MON dynstat_vvel_sd              =   1.2301439963360E-04
(PID.TID 0000.0001) %MON dynstat_vvel_del2            =   3.3015299820116E-07
(PID.TID 0000.0001) %MON dynstat_wvel_max             =   2.0880364409919E-04
(PID.TID 0000.0001) %MON dynstat_wvel_min             =  -2.2364929450077E-04
(PID.TID 0000.0001) %MON dynstat_wvel_mean            =   1.5352055808936E-10
(PID.TID 0000.0001) %MON dynstat_wvel_sd              =   1.2793073116679E-05
(PID.TID 0000.0001) %MON dynstat_wvel_del2            =   5.4564181545414E-08
(PID.TID 0000.0001) %MON dynstat_theta_max            =   1.2000000000000E+00
(PID.TID 0000.0001) %MON dynstat_theta_min            =  -1.0000000000000E+00
(PID.TID 0000.0001) %MON dynstat_theta_mean           =   5.6538539288815E-01
(PID.TID 0000.0001) %MON dynstat_theta_sd             =   8.4904078723697E-01
(PID.TID 0000.0001) %MON dynstat_theta_del2           =   9.2903485000826E-07
(PID.TID 0000.0001) %MON dynstat_salt_max             =   3.4700000000000E+01
(PID.TID 0000.0001) %MON dynstat_salt_min             =   3.4000000000000E+01
(PID.TID 0000.0001) %MON dynstat_salt_mean            =   3.4498067762198E+01
(PID.TID 0000.0001) %MON dynstat_salt_sd              =   2.7014992773406E-01
(PID.TID 0000.0001) %MON dynstat_salt_del2            =   3.5253501397282E-07
(PID.TID 0000.0001) %MON advcfl_uvel_max              =   6.0946372933222E-04
(PID.TID 0000.0001) %MON advcfl_vvel_max              =   5.9526599301540E-04
(PID.TID 0000.0001) %MON advcfl_wvel_max              =   1.1182464725038E-03
(PID.TID 0000.0001) %MON advcfl_W_hf_max              =   1.1182464725038E-03
(PID.TID 0000.0001) %MON pe_b_mean                    =  -6.8270802905195E-01
(PID.TID 0000.0001) %MON ke_max                       =   1.1590168185391E-05
(PID.TID 0000.0001) %MON ke_mean                      =   2.5416512177558E-08
(PID.TID 0000.0001) %MON ke_vol                       =   4.6182917409635E+12
(PID.TID 0000.0001) // =======================================================
(PID.TID 0000.0001) // End MONITOR dynamic field statistics
(PID.TID 0000.0001) // =======================================================
(PID.TID 0000.0001) // =======================================================
(PID.TID 0000.0001) // Begin OBCS MONITOR field statistics
(PID.TID 0000.0001) // =======================================================
(PID.TID 0000.0001) %MON obc_N_vVel_max               =  -6.7255172777873E-08
(PID.TID 0000.0001) %MON obc_N_vVel_min               =  -6.7255172777874E-08
(PID.TID 0000.0001) %MON obc_N_vVel_mean              =  -6.7255172777873E-08
(PID.TID 0000.0001) %MON obc_N_vVel_sd                =  -2.2088105346188E-29
(PID.TID 0000.0001) %MON obc_N_vVel_Int               =  -4.4388414033396E+00
(PID.TID 0000.0001) // =======================================================
(PID.TID 0000.0001) // End OBCS MONITOR field statistics
(PID.TID 0000.0001) // =======================================================
 cg2d: Sum(rhs),rhsMax =   3.01155659477484E+00  4.53049628801276E+02
(PID.TID 0000.0001)      cg2d_init_res =   1.42120173971667E-06
(PID.TID 0000.0001)      cg2d_iters(min,last) =      -1      70
(PID.TID 0000.0001)      cg2d_last_res =   9.44779030932419E-12
(PID.TID 0000.0001) // =======================================================
(PID.TID 0000.0001) // Begin MONITOR dynamic field statistics
(PID.TID 0000.0001) // =======================================================
(PID.TID 0000.0001) %MON time_tsnumber                =                   558
(PID.TID 0000.0001) %MON time_secondsf                =   5.5800000000000E+04
(PID.TID 0000.0001) %MON dynstat_eta_max              =   5.7970207735125E+00
(PID.TID 0000.0001) %MON dynstat_eta_min              =  -1.4175737437482E+01
(PID.TID 0000.0001) %MON dynstat_eta_mean             =  -2.5266381432903E+00
(PID.TID 0000.0001) %MON dynstat_eta_sd               =   4.9418385644932E+00
(PID.TID 0000.0001) %MON dynstat_eta_del2             =   1.9058121341990E-01
(PID.TID 0000.0001) %MON dynstat_uvel_max             =   2.3276743053078E-03
(PID.TID 0000.0001) %MON dynstat_uvel_min             =  -6.1138480953975E-03
(PID.TID 0000.0001) %MON dynstat_uvel_mean            =  -1.7701695952364E-09
(PID.TID 0000.0001) %MON dynstat_uvel_sd              =   1.9109581443573E-04
(PID.TID 0000.0001) %MON dynstat_uvel_del2            =   3.3382957455906E-07
(PID.TID 0000.0001) %MON dynstat_vvel_max             =   5.9667856179260E-03
(PID.TID 0000.0001) %MON dynstat_vvel_min             =  -1.7933646687522E-03
(PID.TID 0000.0001) %MON dynstat_vvel_mean            =  -5.5902125495750E-08
(PID.TID 0000.0001) %MON dynstat_vvel_sd              =   1.2325501980597E-04
(PID.TID 0000.0001) %MON dynstat_vvel_del2            =   3.3102993129913E-07
(PID.TID 0000.0001) %MON dynstat_wvel_max             =   2.0967630682530E-04
(PID.TID 0000.0001) %MON dynstat_wvel_min             =  -2.2437451879369E-04
(PID.TID 0000.0001) %MON dynstat_wvel_mean            =   1.5258013158032E-10
(PID.TID 0000.0001) %MON dynstat_wvel_sd              =   1.2962795734405E-05
(PID.TID 0000.0001) %MON dynstat_wvel_del2            =   5.5414745672039E-08
(PID.TID 0000.0001) %MON dynstat_theta_max            =   1.2000000000000E+00
(PID.TID 0000.0001) %MON dynstat_theta_min            =  -1.0000000000000E+00
(PID.TID 0000.0001) %MON dynstat_theta_mean           =   5.6538513331831E-01
(PID.TID 0000.0001) %MON dynstat_theta_sd             =   8.4904070904736E-01
(PID.TID 0000.0001) %MON dynstat_theta_del2           =   9.2961098232044E-07
(PID.TID 0000.0001) %MON dynstat_salt_max             =   3.4700000000000E+01
(PID.TID 0000.0001) %MON dynstat_salt_min             =   3.4000000000000E+01
(PID.TID 0000.0001) %MON dynstat_salt_mean            =   3.4498067659054E+01
(PID.TID 0000.0001) %MON dynstat_salt_sd              =   2.7014990138079E-01
(PID.TID 0000.0001) %MON dynstat_salt_del2            =   3.5293985412298E-07
(PID.TID 0000.0001) %MON advcfl_uvel_max              =   6.1138480953975E-04
(PID.TID 0000.0001) %MON advcfl_vvel_max              =   5.9667856179260E-04
(PID.TID 0000.0001) %MON advcfl_wvel_max              =   1.1218725939684E-03
(PID.TID 0000.0001) %MON advcfl_W_hf_max              =   1.1218725939684E-03
(PID.TID 0000.0001) %MON pe_b_mean                    =  -6.8270737308265E-01
(PID.TID 0000.0001) %MON ke_max                       =   1.1661011094571E-05
(PID.TID 0000.0001) %MON ke_mean                      =   2.5511230060018E-08
(PID.TID 0000.0001) %MON ke_vol                       =   4.6182917551895E+12
(PID.TID 0000.0001) // =======================================================
(PID.TID 0000.0001) // End MONITOR dynamic field statistics
(PID.TID 0000.0001) // =======================================================
(PID.TID 0000.0001) // =======================================================
(PID.TID 0000.0001) // Begin OBCS MONITOR field statistics
(PID.TID 0000.0001) // =======================================================
(PID.TID 0000.0001) %MON obc_N_vVel_max               =  -6.7173970491905E-08
(PID.TID 0000.0001) %MON obc_N_vVel_min               =  -6.7173970491906E-08
(PID.TID 0000.0001) %MON obc_N_vVel_mean              =  -6.7173970491906E-08
(PID.TID 0000.0001) %MON obc_N_vVel_sd                =  -2.8241220406912E-28
(PID.TID 0000.0001) %MON obc_N_vVel_Int               =  -4.4334820524658E+00
(PID.TID 0000.0001) // =======================================================
(PID.TID 0000.0001) // End OBCS MONITOR field statistics
(PID.TID 0000.0001) // =======================================================
 cg2d: Sum(rhs),rhsMax =   3.01155379722833E+00  4.53049619380963E+02
(PID.TID 0000.0001)      cg2d_init_res =   1.43012115355398E-06
(PID.TID 0000.0001)      cg2d_iters(min,last) =      -1      70
(PID.TID 0000.0001)      cg2d_last_res =   9.47682470990352E-12
(PID.TID 0000.0001) // =======================================================
(PID.TID 0000.0001) // Begin MONITOR dynamic field statistics
(PID.TID 0000.0001) // =======================================================
(PID.TID 0000.0001) %MON time_tsnumber                =                   559
(PID.TID 0000.0001) %MON time_secondsf                =   5.5900000000000E+04
(PID.TID 0000.0001) %MON dynstat_eta_max              =   5.7970234588712E+00
(PID.TID 0000.0001) %MON dynstat_eta_min              =  -1.4175731890096E+01
(PID.TID 0000.0001) %MON dynstat_eta_mean             =  -2.5266357436659E+00
(PID.TID 0000.0001) %MON dynstat_eta_sd               =   4.9418378123977E+00
(PID.TID 0000.0001) %MON dynstat_eta_del2             =   1.9058121745425E-01
(PID.TID 0000.0001) %MON dynstat_uvel_max             =   2.3314852397469E-03
(PID.TID 0000.0001) %MON dynstat_uvel_min             =  -6.1331057572982E-03
(PID.TID 0000.0001) %MON dynstat_uvel_mean            =  -1.7575794921244E-09
(PID.TID 0000.0001) %MON dynstat_uvel_sd              =   1.9144393610684E-04
(PID.TID 0000.0001) %MON dynstat_uvel_del2            =   3.3439890847712E-07
(PID.TID 0000.0001) %MON dynstat_vvel_max             =   5.9809293107249E-03
(PID.TID 0000.0001) %MON dynstat_vvel_min             =  -1.7893263834887E-03
(PID.TID 0000.0001) %MON dynstat_vvel_mean            =  -5.6058225951348E-08
(PID.TID 0000.0001) %MON dynstat_vvel_sd              =   1.2345783448041E-04
(PID.TID 0000.0001) %MON dynstat_vvel_del2            =   3.3177477080002E-07
(PID.TID 0000.0001) %MON dynstat_wvel_max             =   2.1055083337591E-04
(PID.TID 0000.0001) %MON dynstat_wvel_min             =  -2.2510044265098E-04
(PID.TID 0000.0001) %MON dynstat_wvel_mean            =   1.5165813499385E-10
(PID.TID 0000.0001) %MON dynstat_wvel_sd              =   1.3068421933988E-05
(PID.TID 0000.0001) %MON dynstat_wvel_del2            =   5.6082957259078E-08
(PID.TID 0000.0001) %MON dynstat_theta_max            =   1.2000000000000E+00
(PID.TID 0000.0001) %MON dynstat_theta_min            =  -1.0000000000000E+00
(PID.TID 0000.0001) %MON dynstat_theta_mean           =   5.6538487338423E-01
(PID.TID 0000.0001) %MON dynstat_theta_sd             =   8.4904063074654E-01
(PID.TID 0000.0001) %MON dynstat_theta_del2           =   9.3040888825784E-07
(PID.TID 0000.0001) %MON dynstat_salt_max             =   3.4700000000000E+01
(PID.TID 0000.0001) %MON dynstat_salt_min             =   3.4000000000000E+01
(PID.TID 0000.0001) %MON dynstat_salt_mean            =   3.4498067555773E+01
(PID.TID 0000.0001) %MON dynstat_salt_sd              =   2.7014987497839E-01
(PID.TID 0000.0001) %MON dynstat_salt_del2            =   3.5340422442087E-07
(PID.TID 0000.0001) %MON advcfl_uvel_max              =   6.1331057572982E-04
(PID.TID 0000.0001) %MON advcfl_vvel_max              =   5.9809293107249E-04
(PID.TID 0000.0001) %MON advcfl_wvel_max              =   1.1255022132549E-03
(PID.TID 0000.0001) %MON advcfl_W_hf_max              =   1.1255022132549E-03
(PID.TID 0000.0001) %MON pe_b_mean                    =  -6.8270671630060E-01
(PID.TID 0000.0001) %MON ke_max                       =   1.1732257721519E-05
(PID.TID 0000.0001) %MON ke_mean                      =   2.5601581270042E-08
(PID.TID 0000.0001) %MON ke_vol                       =   4.6182917694289E+12
(PID.TID 0000.0001) // =======================================================
(PID.TID 0000.0001) // End MONITOR dynamic field statistics
(PID.TID 0000.0001) // =======================================================
(PID.TID 0000.0001) // =======================================================
(PID.TID 0000.0001) // Begin OBCS MONITOR field statistics
(PID.TID 0000.0001) // =======================================================
(PID.TID 0000.0001) %MON obc_N_vVel_max               =  -6.7228125368964E-08
(PID.TID 0000.0001) %MON obc_N_vVel_min               =  -6.7228125368966E-08
(PID.TID 0000.0001) %MON obc_N_vVel_mean              =  -6.7228125368966E-08
(PID.TID 0000.0001) %MON obc_N_vVel_sd                =  -1.6723851190685E-28
(PID.TID 0000.0001) %MON obc_N_vVel_Int               =  -4.4370562743517E+00
(PID.TID 0000.0001) // =======================================================
(PID.TID 0000.0001) // End OBCS MONITOR field statistics
(PID.TID 0000.0001) // =======================================================
 cg2d: Sum(rhs),rhsMax =   3.01155099702428E+00  4.53049609900483E+02
(PID.TID 0000.0001)      cg2d_init_res =   1.43652065630041E-06
(PID.TID 0000.0001)      cg2d_iters(min,last) =      -1      70
(PID.TID 0000.0001)      cg2d_last_res =   9.50530159778801E-12
(PID.TID 0000.0001) // =======================================================
(PID.TID 0000.0001) // Begin MONITOR dynamic field statistics
(PID.TID 0000.0001) // =======================================================
(PID.TID 0000.0001) %MON time_tsnumber                =                   560
(PID.TID 0000.0001) %MON time_secondsf                =   5.6000000000000E+04
(PID.TID 0000.0001) %MON dynstat_eta_max              =   5.7970261451350E+00
(PID.TID 0000.0001) %MON dynstat_eta_min              =  -1.4175726350141E+01
(PID.TID 0000.0001) %MON dynstat_eta_mean             =  -2.5266333414764E+00
(PID.TID 0000.0001) %MON dynstat_eta_sd               =   4.9418370594547E+00
(PID.TID 0000.0001) %MON dynstat_eta_del2             =   1.9058122149591E-01
(PID.TID 0000.0001) %MON dynstat_uvel_max             =   2.3353051653796E-03
(PID.TID 0000.0001) %MON dynstat_uvel_min             =  -6.1524104152761E-03
(PID.TID 0000.0001) %MON dynstat_uvel_mean            =  -1.7452610860693E-09
(PID.TID 0000.0001) %MON dynstat_uvel_sd              =   1.9179276512975E-04
(PID.TID 0000.0001) %MON dynstat_uvel_del2            =   3.3497123702376E-07
(PID.TID 0000.0001) %MON dynstat_vvel_max             =   5.9950910987314E-03
(PID.TID 0000.0001) %MON dynstat_vvel_min             =  -1.7852540767356E-03
(PID.TID 0000.0001) %MON dynstat_vvel_mean            =  -5.6349127440573E-08
(PID.TID 0000.0001) %MON dynstat_vvel_sd              =   1.2361972803699E-04
(PID.TID 0000.0001) %MON dynstat_vvel_del2            =   3.3237050550957E-07
(PID.TID 0000.0001) %MON dynstat_wvel_max             =   2.1142722732447E-04
(PID.TID 0000.0001) %MON dynstat_wvel_min             =  -2.2582706481543E-04
(PID.TID 0000.0001) %MON dynstat_wvel_mean            =   1.5078936740248E-10
(PID.TID 0000.0001) %MON dynstat_wvel_sd              =   1.3105033832666E-05
(PID.TID 0000.0001) %MON dynstat_wvel_del2            =   5.6533807839619E-08
(PID.TID 0000.0001) %MON dynstat_theta_max            =   1.2000000000000E+00
(PID.TID 0000.0001) %MON dynstat_theta_min            =  -1.0000000000000E+00
(PID.TID 0000.0001) %MON dynstat_theta_mean           =   5.6538461307737E-01
(PID.TID 0000.0001) %MON dynstat_theta_sd             =   8.4904055235584E-01
(PID.TID 0000.0001) %MON dynstat_theta_del2           =   9.3145648289101E-07
(PID.TID 0000.0001) %MON dynstat_salt_max             =   3.4700000000000E+01
(PID.TID 0000.0001) %MON dynstat_salt_min             =   3.4000000000000E+01
(PID.TID 0000.0001) %MON dynstat_salt_mean            =   3.4498067452353E+01
(PID.TID 0000.0001) %MON dynstat_salt_sd              =   2.7014984853362E-01
(PID.TID 0000.0001) %MON dynstat_salt_del2            =   3.5393547447883E-07
(PID.TID 0000.0001) %MON advcfl_uvel_max              =   6.1524104152761E-04
(PID.TID 0000.0001) %MON advcfl_vvel_max              =   5.9950910987314E-04
(PID.TID 0000.0001) %MON advcfl_wvel_max              =   1.1291353240772E-03
(PID.TID 0000.0001) %MON advcfl_W_hf_max              =   1.1291353240772E-03
(PID.TID 0000.0001) %MON pe_b_mean                    =  -6.8270605867682E-01
(PID.TID 0000.0001) %MON ke_max                       =   1.1803910301038E-05
(PID.TID 0000.0001) %MON ke_mean                      =   2.5687166319084E-08
(PID.TID 0000.0001) %MON ke_vol                       =   4.6182917836826E+12
(PID.TID 0000.0001) // =======================================================
(PID.TID 0000.0001) // End MONITOR dynamic field statistics
(PID.TID 0000.0001) // =======================================================
(PID.TID 0000.0001) // =======================================================
(PID.TID 0000.0001) // Begin OBCS MONITOR field statistics
(PID.TID 0000.0001) // =======================================================
(PID.TID 0000.0001) %MON obc_N_vVel_max               =  -6.7411680626947E-08
(PID.TID 0000.0001) %MON obc_N_vVel_min               =  -6.7411680626948E-08
(PID.TID 0000.0001) %MON obc_N_vVel_mean              =  -6.7411680626948E-08
(PID.TID 0000.0001) %MON obc_N_vVel_sd                =  -1.0965166582572E-28
(PID.TID 0000.0001) %MON obc_N_vVel_Int               =  -4.4491709213786E+00
(PID.TID 0000.0001) // =======================================================
(PID.TID 0000.0001) // End OBCS MONITOR field statistics
(PID.TID 0000.0001) // =======================================================
 cg2d: Sum(rhs),rhsMax =   3.01154819397575E+00  4.53049600363534E+02
(PID.TID 0000.0001)      cg2d_init_res =   1.44002654899217E-06
(PID.TID 0000.0001)      cg2d_iters(min,last) =      -1      70
(PID.TID 0000.0001)      cg2d_last_res =   9.53272529761669E-12
(PID.TID 0000.0001) // =======================================================
(PID.TID 0000.0001) // Begin MONITOR dynamic field statistics
(PID.TID 0000.0001) // =======================================================
(PID.TID 0000.0001) %MON time_tsnumber                =                   561
(PID.TID 0000.0001) %MON time_secondsf                =   5.6100000000000E+04
(PID.TID 0000.0001) %MON dynstat_eta_max              =   5.7970288326006E+00
(PID.TID 0000.0001) %MON dynstat_eta_min              =  -1.4175720817420E+01
(PID.TID 0000.0001) %MON dynstat_eta_mean             =  -2.5266309365856E+00
(PID.TID 0000.0001) %MON dynstat_eta_sd               =   4.9418363056357E+00
(PID.TID 0000.0001) %MON dynstat_eta_del2             =   1.9058122554504E-01
(PID.TID 0000.0001) %MON dynstat_uvel_max             =   2.3391340877534E-03
(PID.TID 0000.0001) %MON dynstat_uvel_min             =  -6.1717622055806E-03
(PID.TID 0000.0001) %MON dynstat_uvel_mean            =  -1.7334662578618E-09
(PID.TID 0000.0001) %MON dynstat_uvel_sd              =   1.9214233757497E-04
(PID.TID 0000.0001) %MON dynstat_uvel_del2            =   3.3554656474173E-07
(PID.TID 0000.0001) %MON dynstat_vvel_max             =   6.0092710729214E-03
(PID.TID 0000.0001) %MON dynstat_vvel_min             =  -1.7811479171126E-03
(PID.TID 0000.0001) %MON dynstat_vvel_mean            =  -5.6760356992828E-08
(PID.TID 0000.0001) %MON dynstat_vvel_sd              =   1.2373966667141E-04
(PID.TID 0000.0001) %MON dynstat_vvel_del2            =   3.3280783030801E-07
(PID.TID 0000.0001) %MON dynstat_wvel_max             =   2.1230549226459E-04
(PID.TID 0000.0001) %MON dynstat_wvel_min             =  -2.2655438406788E-04
(PID.TID 0000.0001) %MON dynstat_wvel_mean            =   1.5000610630364E-10
(PID.TID 0000.0001) %MON dynstat_wvel_sd              =   1.3070245595924E-05
(PID.TID 0000.0001) %MON dynstat_wvel_del2            =   5.6741800781509E-08
(PID.TID 0000.0001) %MON dynstat_theta_max            =   1.2000000000000E+00
(PID.TID 0000.0001) %MON dynstat_theta_min            =  -1.0000000000000E+00
(PID.TID 0000.0001) %MON dynstat_theta_mean           =   5.6538435239030E-01
(PID.TID 0000.0001) %MON dynstat_theta_sd             =   8.4904047387747E-01
(PID.TID 0000.0001) %MON dynstat_theta_del2           =   9.3276936067602E-07
(PID.TID 0000.0001) %MON dynstat_salt_max             =   3.4700000000000E+01
(PID.TID 0000.0001) %MON dynstat_salt_min             =   3.4000000000000E+01
(PID.TID 0000.0001) %MON dynstat_salt_mean            =   3.4498067348789E+01
(PID.TID 0000.0001) %MON dynstat_salt_sd              =   2.7014982204703E-01
(PID.TID 0000.0001) %MON dynstat_salt_del2            =   3.5453774762333E-07
(PID.TID 0000.0001) %MON advcfl_uvel_max              =   6.1717622055806E-04
(PID.TID 0000.0001) %MON advcfl_vvel_max              =   6.0092710729214E-04
(PID.TID 0000.0001) %MON advcfl_wvel_max              =   1.1327719203394E-03
(PID.TID 0000.0001) %MON advcfl_W_hf_max              =   1.1327719203394E-03
(PID.TID 0000.0001) %MON pe_b_mean                    =  -6.8270540018528E-01
(PID.TID 0000.0001) %MON ke_max                       =   1.1875971078939E-05
(PID.TID 0000.0001) %MON ke_mean                      =   2.5767844940414E-08
(PID.TID 0000.0001) %MON ke_vol                       =   4.6182917979516E+12
(PID.TID 0000.0001) // =======================================================
(PID.TID 0000.0001) // End MONITOR dynamic field statistics
(PID.TID 0000.0001) // =======================================================
(PID.TID 0000.0001) // =======================================================
(PID.TID 0000.0001) // Begin OBCS MONITOR field statistics
(PID.TID 0000.0001) // =======================================================
(PID.TID 0000.0001) %MON obc_N_vVel_max               =  -6.7714243594397E-08
(PID.TID 0000.0001) %MON obc_N_vVel_min               =  -6.7714243594399E-08
(PID.TID 0000.0001) %MON obc_N_vVel_mean              =  -6.7714243594397E-08
(PID.TID 0000.0001) %MON obc_N_vVel_sd                =   1.6304788408915E-14
(PID.TID 0000.0001) %MON obc_N_vVel_Int               =  -4.4691400772302E+00
(PID.TID 0000.0001) // =======================================================
(PID.TID 0000.0001) // End OBCS MONITOR field statistics
(PID.TID 0000.0001) // =======================================================
 cg2d: Sum(rhs),rhsMax =   3.01154538790993E+00  4.53049590774900E+02
(PID.TID 0000.0001)      cg2d_init_res =   1.44041865028585E-06
(PID.TID 0000.0001)      cg2d_iters(min,last) =      -1      70
(PID.TID 0000.0001)      cg2d_last_res =   9.55909622054530E-12
(PID.TID 0000.0001) // =======================================================
(PID.TID 0000.0001) // Begin MONITOR dynamic field statistics
(PID.TID 0000.0001) // =======================================================
(PID.TID 0000.0001) %MON time_tsnumber                =                   562
(PID.TID 0000.0001) %MON time_secondsf                =   5.6200000000000E+04
(PID.TID 0000.0001) %MON dynstat_eta_max              =   5.7970315215312E+00
(PID.TID 0000.0001) %MON dynstat_eta_min              =  -1.4175715291766E+01
(PID.TID 0000.0001) %MON dynstat_eta_mean             =  -2.5266285288752E+00
(PID.TID 0000.0001) %MON dynstat_eta_sd               =   4.9418355509208E+00
(PID.TID 0000.0001) %MON dynstat_eta_del2             =   1.9058122960189E-01
(PID.TID 0000.0001) %MON dynstat_uvel_max             =   2.3429720117818E-03
(PID.TID 0000.0001) %MON dynstat_uvel_min             =  -6.1911612644012E-03
(PID.TID 0000.0001) %MON dynstat_uvel_mean            =  -1.7224301413955E-09
(PID.TID 0000.0001) %MON dynstat_uvel_sd              =   1.9249268302329E-04
(PID.TID 0000.0001) %MON dynstat_uvel_del2            =   3.3612486579207E-07
(PID.TID 0000.0001) %MON dynstat_vvel_max             =   6.0234693247085E-03
(PID.TID 0000.0001) %MON dynstat_vvel_min             =  -1.7770080694239E-03
(PID.TID 0000.0001) %MON dynstat_vvel_mean            =  -5.7273447524063E-08
(PID.TID 0000.0001) %MON dynstat_vvel_sd              =   1.2381875453359E-04
(PID.TID 0000.0001) %MON dynstat_vvel_del2            =   3.3308571810901E-07
(PID.TID 0000.0001) %MON dynstat_wvel_max             =   2.1318563185333E-04
(PID.TID 0000.0001) %MON dynstat_wvel_min             =  -2.2728239922239E-04
(PID.TID 0000.0001) %MON dynstat_wvel_mean            =   1.4933701195698E-10
(PID.TID 0000.0001) %MON dynstat_wvel_sd              =   1.2964245667167E-05
(PID.TID 0000.0001) %MON dynstat_wvel_del2            =   5.6691403597283E-08
(PID.TID 0000.0001) %MON dynstat_theta_max            =   1.2000000000000E+00
(PID.TID 0000.0001) %MON dynstat_theta_min            =  -1.0000000000000E+00
(PID.TID 0000.0001) %MON dynstat_theta_mean           =   5.6538409131716E-01
(PID.TID 0000.0001) %MON dynstat_theta_sd             =   8.4904039531499E-01
(PID.TID 0000.0001) %MON dynstat_theta_del2           =   9.3434958136399E-07
(PID.TID 0000.0001) %MON dynstat_salt_max             =   3.4700000000000E+01
(PID.TID 0000.0001) %MON dynstat_salt_min             =   3.4000000000000E+01
(PID.TID 0000.0001) %MON dynstat_salt_mean            =   3.4498067245081E+01
(PID.TID 0000.0001) %MON dynstat_salt_sd              =   2.7014979551988E-01
(PID.TID 0000.0001) %MON dynstat_salt_del2            =   3.5521145543705E-07
(PID.TID 0000.0001) %MON advcfl_uvel_max              =   6.1911612644012E-04
(PID.TID 0000.0001) %MON advcfl_vvel_max              =   6.0234693247085E-04
(PID.TID 0000.0001) %MON advcfl_wvel_max              =   1.1364119961120E-03
(PID.TID 0000.0001) %MON advcfl_W_hf_max              =   1.1364119961120E-03
(PID.TID 0000.0001) %MON pe_b_mean                    =  -6.8270474080456E-01
(PID.TID 0000.0001) %MON ke_max                       =   1.1948442312179E-05
(PID.TID 0000.0001) %MON ke_mean                      =   2.5843745098812E-08
(PID.TID 0000.0001) %MON ke_vol                       =   4.6182918122367E+12
(PID.TID 0000.0001) // =======================================================
(PID.TID 0000.0001) // End MONITOR dynamic field statistics
(PID.TID 0000.0001) // =======================================================
(PID.TID 0000.0001) // =======================================================
(PID.TID 0000.0001) // Begin OBCS MONITOR field statistics
(PID.TID 0000.0001) // =======================================================
(PID.TID 0000.0001) %MON obc_N_vVel_max               =  -6.8121422343079E-08
(PID.TID 0000.0001) %MON obc_N_vVel_min               =  -6.8121422343080E-08
(PID.TID 0000.0001) %MON obc_N_vVel_mean              =  -6.8121422343080E-08
(PID.TID 0000.0001) %MON obc_N_vVel_sd                =  -4.7331654313261E-30
(PID.TID 0000.0001) %MON obc_N_vVel_Int               =  -4.4960138746433E+00
(PID.TID 0000.0001) // =======================================================
(PID.TID 0000.0001) // End OBCS MONITOR field statistics
(PID.TID 0000.0001) // =======================================================
 cg2d: Sum(rhs),rhsMax =   3.01154257866951E+00  4.53049581140296E+02
(PID.TID 0000.0001)      cg2d_init_res =   1.43759585975628E-06
(PID.TID 0000.0001)      cg2d_iters(min,last) =      -1      70
(PID.TID 0000.0001)      cg2d_last_res =   9.58586252432536E-12
(PID.TID 0000.0001) // =======================================================
(PID.TID 0000.0001) // Begin MONITOR dynamic field statistics
(PID.TID 0000.0001) // =======================================================
(PID.TID 0000.0001) %MON time_tsnumber                =                   563
(PID.TID 0000.0001) %MON time_secondsf                =   5.6300000000000E+04
(PID.TID 0000.0001) %MON dynstat_eta_max              =   5.7970342121640E+00
(PID.TID 0000.0001) %MON dynstat_eta_min              =  -1.4175709773074E+01
(PID.TID 0000.0001) %MON dynstat_eta_mean             =  -2.5266261182452E+00
(PID.TID 0000.0001) %MON dynstat_eta_sd               =   4.9418347952972E+00
(PID.TID 0000.0001) %MON dynstat_eta_del2             =   1.9058123366662E-01
(PID.TID 0000.0001) %MON dynstat_uvel_max             =   2.3468189420139E-03
(PID.TID 0000.0001) %MON dynstat_uvel_min             =  -6.2106077279678E-03
(PID.TID 0000.0001) %MON dynstat_uvel_mean            =  -1.7123501954364E-09
(PID.TID 0000.0001) %MON dynstat_uvel_sd              =   1.9284382474364E-04
(PID.TID 0000.0001) %MON dynstat_uvel_del2            =   3.3670608574899E-07
(PID.TID 0000.0001) %MON dynstat_vvel_max             =   6.0376859460853E-03
(PID.TID 0000.0001) %MON dynstat_vvel_min             =  -1.7728347030541E-03
(PID.TID 0000.0001) %MON dynstat_vvel_mean            =  -5.7866626188980E-08
(PID.TID 0000.0001) %MON dynstat_vvel_sd              =   1.2386018683404E-04
(PID.TID 0000.0001) %MON dynstat_vvel_del2            =   3.3321159509701E-07
(PID.TID 0000.0001) %MON dynstat_wvel_max             =   2.1406764977755E-04
(PID.TID 0000.0001) %MON dynstat_wvel_min             =  -2.2801110915657E-04
(PID.TID 0000.0001) %MON dynstat_wvel_mean            =   1.4880638432745E-10
(PID.TID 0000.0001) %MON dynstat_wvel_sd              =   1.2789849092731E-05
(PID.TID 0000.0001) %MON dynstat_wvel_del2            =   5.6377382685720E-08
(PID.TID 0000.0001) %MON dynstat_theta_max            =   1.2000000000000E+00
(PID.TID 0000.0001) %MON dynstat_theta_min            =  -1.0000000000000E+00
(PID.TID 0000.0001) %MON dynstat_theta_mean           =   5.6538382985337E-01
(PID.TID 0000.0001) %MON dynstat_theta_sd             =   8.4904031666986E-01
(PID.TID 0000.0001) %MON dynstat_theta_del2           =   9.3618531377715E-07
(PID.TID 0000.0001) %MON dynstat_salt_max             =   3.4700000000000E+01
(PID.TID 0000.0001) %MON dynstat_salt_min             =   3.4000000000000E+01
(PID.TID 0000.0001) %MON dynstat_salt_mean            =   3.4498067141227E+01
(PID.TID 0000.0001) %MON dynstat_salt_sd              =   2.7014976895248E-01
(PID.TID 0000.0001) %MON dynstat_salt_del2            =   3.5595339900048E-07
(PID.TID 0000.0001) %MON advcfl_uvel_max              =   6.2106077279678E-04
(PID.TID 0000.0001) %MON advcfl_vvel_max              =   6.0376859460853E-04
(PID.TID 0000.0001) %MON advcfl_wvel_max              =   1.1400555457829E-03
(PID.TID 0000.0001) %MON advcfl_W_hf_max              =   1.1400555457829E-03
(PID.TID 0000.0001) %MON pe_b_mean                    =  -6.8270408051746E-01
(PID.TID 0000.0001) %MON ke_max                       =   1.2021326268829E-05
(PID.TID 0000.0001) %MON ke_mean                      =   2.5915258042264E-08
(PID.TID 0000.0001) %MON ke_vol                       =   4.6182918265385E+12
(PID.TID 0000.0001) // =======================================================
(PID.TID 0000.0001) // End MONITOR dynamic field statistics
(PID.TID 0000.0001) // =======================================================
(PID.TID 0000.0001) // =======================================================
(PID.TID 0000.0001) // Begin OBCS MONITOR field statistics
(PID.TID 0000.0001) // =======================================================
(PID.TID 0000.0001) %MON obc_N_vVel_max               =  -6.8615396374446E-08
(PID.TID 0000.0001) %MON obc_N_vVel_min               =  -6.8615396374446E-08
(PID.TID 0000.0001) %MON obc_N_vVel_mean              =  -6.8615396374446E-08
(PID.TID 0000.0001) %MON obc_N_vVel_sd                =  -9.2296725910858E-29
(PID.TID 0000.0001) %MON obc_N_vVel_Int               =  -4.5286161607135E+00
(PID.TID 0000.0001) // =======================================================
(PID.TID 0000.0001) // End OBCS MONITOR field statistics
(PID.TID 0000.0001) // =======================================================
 cg2d: Sum(rhs),rhsMax =   3.01153976612030E+00  4.53049571466191E+02
(PID.TID 0000.0001)      cg2d_init_res =   1.43164163369411E-06
(PID.TID 0000.0001)      cg2d_iters(min,last) =      -1      70
(PID.TID 0000.0001)      cg2d_last_res =   9.61438300268535E-12
(PID.TID 0000.0001) // =======================================================
(PID.TID 0000.0001) // Begin MONITOR dynamic field statistics
(PID.TID 0000.0001) // =======================================================
(PID.TID 0000.0001) %MON time_tsnumber                =                   564
(PID.TID 0000.0001) %MON time_secondsf                =   5.6400000000000E+04
(PID.TID 0000.0001) %MON dynstat_eta_max              =   5.7970369047008E+00
(PID.TID 0000.0001) %MON dynstat_eta_min              =  -1.4175704261271E+01
(PID.TID 0000.0001) %MON dynstat_eta_mean             =  -2.5266237046189E+00
(PID.TID 0000.0001) %MON dynstat_eta_sd               =   4.9418340387624E+00
(PID.TID 0000.0001) %MON dynstat_eta_del2             =   1.9058123773945E-01
(PID.TID 0000.0001) %MON dynstat_uvel_max             =   2.3506748823952E-03
(PID.TID 0000.0001) %MON dynstat_uvel_min             =  -6.2301017324495E-03
(PID.TID 0000.0001) %MON dynstat_uvel_mean            =  -1.7033753013712E-09
(PID.TID 0000.0001) %MON dynstat_uvel_sd              =   1.9319578017970E-04
(PID.TID 0000.0001) %MON dynstat_uvel_del2            =   3.3729014593119E-07
(PID.TID 0000.0001) %MON dynstat_vvel_max             =   6.0519210292331E-03
(PID.TID 0000.0001) %MON dynstat_vvel_min             =  -1.7686279838589E-03
(PID.TID 0000.0001) %MON dynstat_vvel_mean            =  -5.8515604948927E-08
(PID.TID 0000.0001) %MON dynstat_vvel_sd              =   1.2386910028177E-04
(PID.TID 0000.0001) %MON dynstat_vvel_del2            =   3.3320110414629E-07
(PID.TID 0000.0001) %MON dynstat_wvel_max             =   2.1495154977934E-04
(PID.TID 0000.0001) %MON dynstat_wvel_min             =  -2.2874051276458E-04
(PID.TID 0000.0001) %MON dynstat_wvel_mean            =   1.4843355042918E-10
(PID.TID 0000.0001) %MON dynstat_wvel_sd              =   1.2552560630747E-05
(PID.TID 0000.0001) %MON dynstat_wvel_del2            =   5.5805078961727E-08
(PID.TID 0000.0001) %MON dynstat_theta_max            =   1.2000000000000E+00
(PID.TID 0000.0001) %MON dynstat_theta_min            =  -1.0000000000000E+00
(PID.TID 0000.0001) %MON dynstat_theta_mean           =   5.6538356799597E-01
(PID.TID 0000.0001) %MON dynstat_theta_sd             =   8.4904023793887E-01
(PID.TID 0000.0001) %MON dynstat_theta_del2           =   9.3825125106992E-07
(PID.TID 0000.0001) %MON dynstat_salt_max             =   3.4700000000000E+01
(PID.TID 0000.0001) %MON dynstat_salt_min             =   3.4000000000000E+01
(PID.TID 0000.0001) %MON dynstat_salt_mean            =   3.4498067037227E+01
(PID.TID 0000.0001) %MON dynstat_salt_sd              =   2.7014974234373E-01
(PID.TID 0000.0001) %MON dynstat_salt_del2            =   3.5675681663353E-07
(PID.TID 0000.0001) %MON advcfl_uvel_max              =   6.2301017324495E-04
(PID.TID 0000.0001) %MON advcfl_vvel_max              =   6.0519210292331E-04
(PID.TID 0000.0001) %MON advcfl_wvel_max              =   1.1437025638229E-03
(PID.TID 0000.0001) %MON advcfl_W_hf_max              =   1.1437025638229E-03
(PID.TID 0000.0001) %MON pe_b_mean                    =  -6.8270341931235E-01
(PID.TID 0000.0001) %MON ke_max                       =   1.2094625227581E-05
(PID.TID 0000.0001) %MON ke_mean                      =   2.5983019464092E-08
(PID.TID 0000.0001) %MON ke_vol                       =   4.6182918408576E+12
(PID.TID 0000.0001) // =======================================================
(PID.TID 0000.0001) // End MONITOR dynamic field statistics
(PID.TID 0000.0001) // =======================================================
(PID.TID 0000.0001) // =======================================================
(PID.TID 0000.0001) // Begin OBCS MONITOR field statistics
(PID.TID 0000.0001) // =======================================================
(PID.TID 0000.0001) %MON obc_N_vVel_max               =  -6.9175595133264E-08
(PID.TID 0000.0001) %MON obc_N_vVel_min               =  -6.9175595133264E-08
(PID.TID 0000.0001) %MON obc_N_vVel_mean              =  -6.9175595133264E-08
(PID.TID 0000.0001) %MON obc_N_vVel_sd                =  -8.6774699574311E-29
(PID.TID 0000.0001) %MON obc_N_vVel_Int               =  -4.5655892787954E+00
(PID.TID 0000.0001) // =======================================================
(PID.TID 0000.0001) // End OBCS MONITOR field statistics
(PID.TID 0000.0001) // =======================================================
 cg2d: Sum(rhs),rhsMax =   3.01153695015412E+00  4.53049561759727E+02
(PID.TID 0000.0001)      cg2d_init_res =   1.42278316180853E-06
(PID.TID 0000.0001)      cg2d_iters(min,last) =      -1      70
(PID.TID 0000.0001)      cg2d_last_res =   9.64589036543486E-12
(PID.TID 0000.0001) // =======================================================
(PID.TID 0000.0001) // Begin MONITOR dynamic field statistics
(PID.TID 0000.0001) // =======================================================
(PID.TID 0000.0001) %MON time_tsnumber                =                   565
(PID.TID 0000.0001) %MON time_secondsf                =   5.6500000000000E+04
(PID.TID 0000.0001) %MON dynstat_eta_max              =   5.7970395992931E+00
(PID.TID 0000.0001) %MON dynstat_eta_min              =  -1.4175698756373E+01
(PID.TID 0000.0001) %MON dynstat_eta_mean             =  -2.5266212879455E+00
(PID.TID 0000.0001) %MON dynstat_eta_sd               =   4.9418332813235E+00
(PID.TID 0000.0001) %MON dynstat_eta_del2             =   1.9058124182059E-01
(PID.TID 0000.0001) %MON dynstat_uvel_max             =   2.3545398361513E-03
(PID.TID 0000.0001) %MON dynstat_uvel_min             =  -6.2496434138612E-03
(PID.TID 0000.0001) %MON dynstat_uvel_mean            =  -1.6956075310412E-09
(PID.TID 0000.0001) %MON dynstat_uvel_sd              =   1.9354856172204E-04
(PID.TID 0000.0001) %MON dynstat_uvel_del2            =   3.3787694882683E-07
(PID.TID 0000.0001) %MON dynstat_vvel_max             =   6.0661746662432E-03
(PID.TID 0000.0001) %MON dynstat_vvel_min             =  -1.7643880792058E-03
(PID.TID 0000.0001) %MON dynstat_vvel_mean            =  -5.9194444986152E-08
(PID.TID 0000.0001) %MON dynstat_vvel_sd              =   1.2385232542091E-04
(PID.TID 0000.0001) %MON dynstat_vvel_del2            =   3.3307745637684E-07
(PID.TID 0000.0001) %MON dynstat_wvel_max             =   2.1583733560690E-04
(PID.TID 0000.0001) %MON dynstat_wvel_min             =  -2.2947060900518E-04
(PID.TID 0000.0001) %MON dynstat_wvel_mean            =   1.4823218992015E-10
(PID.TID 0000.0001) %MON dynstat_wvel_sd              =   1.2260642776815E-05
(PID.TID 0000.0001) %MON dynstat_wvel_del2            =   5.4990652181165E-08
(PID.TID 0000.0001) %MON dynstat_theta_max            =   1.2000000000000E+00
(PID.TID 0000.0001) %MON dynstat_theta_min            =  -1.0000000000000E+00
(PID.TID 0000.0001) %MON dynstat_theta_mean           =   5.6538330574372E-01
(PID.TID 0000.0001) %MON dynstat_theta_sd             =   8.4904015912797E-01
(PID.TID 0000.0001) %MON dynstat_theta_del2           =   9.4050980686363E-07
(PID.TID 0000.0001) %MON dynstat_salt_max             =   3.4700000000000E+01
(PID.TID 0000.0001) %MON dynstat_salt_min             =   3.4000000000000E+01
(PID.TID 0000.0001) %MON dynstat_salt_mean            =   3.4498066933079E+01
(PID.TID 0000.0001) %MON dynstat_salt_sd              =   2.7014971569564E-01
(PID.TID 0000.0001) %MON dynstat_salt_del2            =   3.5761169030583E-07
(PID.TID 0000.0001) %MON advcfl_uvel_max              =   6.2496434138613E-04
(PID.TID 0000.0001) %MON advcfl_vvel_max              =   6.0661746662432E-04
(PID.TID 0000.0001) %MON advcfl_wvel_max              =   1.1473530450259E-03
(PID.TID 0000.0001) %MON advcfl_W_hf_max              =   1.1473530450259E-03
(PID.TID 0000.0001) %MON pe_b_mean                    =  -6.8270275718327E-01
(PID.TID 0000.0001) %MON ke_max                       =   1.2168341477252E-05
(PID.TID 0000.0001) %MON ke_mean                      =   2.6047877616633E-08
(PID.TID 0000.0001) %MON ke_vol                       =   4.6182918551946E+12
(PID.TID 0000.0001) // =======================================================
(PID.TID 0000.0001) // End MONITOR dynamic field statistics
(PID.TID 0000.0001) // =======================================================
(PID.TID 0000.0001) // =======================================================
(PID.TID 0000.0001) // Begin OBCS MONITOR field statistics
(PID.TID 0000.0001) // =======================================================
(PID.TID 0000.0001) %MON obc_N_vVel_max               =  -6.9779414786165E-08
(PID.TID 0000.0001) %MON obc_N_vVel_min               =  -6.9779414786167E-08
(PID.TID 0000.0001) %MON obc_N_vVel_mean              =  -6.9779414786165E-08
(PID.TID 0000.0001) %MON obc_N_vVel_sd                =   1.2402736654388E-14
(PID.TID 0000.0001) %MON obc_N_vVel_Int               =  -4.6054413758869E+00
(PID.TID 0000.0001) // =======================================================
(PID.TID 0000.0001) // End OBCS MONITOR field statistics
(PID.TID 0000.0001) // =======================================================
 cg2d: Sum(rhs),rhsMax =   3.01153413068715E+00  4.53049552028465E+02
(PID.TID 0000.0001)      cg2d_init_res =   1.41139095822686E-06
(PID.TID 0000.0001)      cg2d_iters(min,last) =      -1      70
(PID.TID 0000.0001)      cg2d_last_res =   9.68080073176111E-12
(PID.TID 0000.0001) // =======================================================
(PID.TID 0000.0001) // Begin MONITOR dynamic field statistics
(PID.TID 0000.0001) // =======================================================
(PID.TID 0000.0001) %MON time_tsnumber                =                   566
(PID.TID 0000.0001) %MON time_secondsf                =   5.6600000000000E+04
(PID.TID 0000.0001) %MON dynstat_eta_max              =   5.7970422960702E+00
(PID.TID 0000.0001) %MON dynstat_eta_min              =  -1.4175693258440E+01
(PID.TID 0000.0001) %MON dynstat_eta_mean             =  -2.5266188681968E+00
(PID.TID 0000.0001) %MON dynstat_eta_sd               =   4.9418325229982E+00
(PID.TID 0000.0001) %MON dynstat_eta_del2             =   1.9058124591047E-01
(PID.TID 0000.0001) %MON dynstat_uvel_max             =   2.3584138060997E-03
(PID.TID 0000.0001) %MON dynstat_uvel_min             =  -6.2692329080951E-03
(PID.TID 0000.0001) %MON dynstat_uvel_mean            =  -1.6891076648497E-09
(PID.TID 0000.0001) %MON dynstat_uvel_sd              =   1.9390217771547E-04
(PID.TID 0000.0001) %MON dynstat_uvel_del2            =   3.3846638447953E-07
(PID.TID 0000.0001) %MON dynstat_vvel_max             =   6.0804469493463E-03
(PID.TID 0000.0001) %MON dynstat_vvel_min             =  -1.7601151573237E-03
(PID.TID 0000.0001) %MON dynstat_vvel_mean            =  -5.9876457302630E-08
(PID.TID 0000.0001) %MON dynstat_vvel_sd              =   1.2381804975594E-04
(PID.TID 0000.0001) %MON dynstat_vvel_del2            =   3.3287038331555E-07
(PID.TID 0000.0001) %MON dynstat_wvel_max             =   2.1672501105114E-04
(PID.TID 0000.0001) %MON dynstat_wvel_min             =  -2.3020139689081E-04
(PID.TID 0000.0001) %MON dynstat_wvel_mean            =   1.4820981095060E-10
(PID.TID 0000.0001) %MON dynstat_wvel_sd              =   1.1925172007561E-05
(PID.TID 0000.0001) %MON dynstat_wvel_del2            =   5.3961283857928E-08
(PID.TID 0000.0001) %MON dynstat_theta_max            =   1.2000000000000E+00
(PID.TID 0000.0001) %MON dynstat_theta_min            =  -1.0000000000000E+00
(PID.TID 0000.0001) %MON dynstat_theta_mean           =   5.6538304309663E-01
(PID.TID 0000.0001) %MON dynstat_theta_sd             =   8.4904008023613E-01
(PID.TID 0000.0001) %MON dynstat_theta_del2           =   9.4291299060039E-07
(PID.TID 0000.0001) %MON dynstat_salt_max             =   3.4700000000000E+01
(PID.TID 0000.0001) %MON dynstat_salt_min             =   3.4000000000000E+01
(PID.TID 0000.0001) %MON dynstat_salt_mean            =   3.4498066828783E+01
(PID.TID 0000.0001) %MON dynstat_salt_sd              =   2.7014968900783E-01
(PID.TID 0000.0001) %MON dynstat_salt_del2            =   3.5850523233774E-07
(PID.TID 0000.0001) %MON advcfl_uvel_max              =   6.2692329080951E-04
(PID.TID 0000.0001) %MON advcfl_vvel_max              =   6.0804469493463E-04
(PID.TID 0000.0001) %MON advcfl_wvel_max              =   1.1510069844540E-03
(PID.TID 0000.0001) %MON advcfl_W_hf_max              =   1.1510069844540E-03
(PID.TID 0000.0001) %MON pe_b_mean                    =  -6.8270209412920E-01
(PID.TID 0000.0001) %MON ke_max                       =   1.2242477316782E-05
(PID.TID 0000.0001) %MON ke_mean                      =   2.6110849930242E-08
(PID.TID 0000.0001) %MON ke_vol                       =   4.6182918695496E+12
(PID.TID 0000.0001) // =======================================================
(PID.TID 0000.0001) // End MONITOR dynamic field statistics
(PID.TID 0000.0001) // =======================================================
(PID.TID 0000.0001) // =======================================================
(PID.TID 0000.0001) // Begin OBCS MONITOR field statistics
(PID.TID 0000.0001) // =======================================================
(PID.TID 0000.0001) %MON obc_N_vVel_max               =  -7.0403005697597E-08
(PID.TID 0000.0001) %MON obc_N_vVel_min               =  -7.0403005697597E-08
(PID.TID 0000.0001) %MON obc_N_vVel_mean              =  -7.0403005697597E-08
(PID.TID 0000.0001) %MON obc_N_vVel_sd                =   7.3241068776356E-15
(PID.TID 0000.0001) %MON obc_N_vVel_Int               =  -4.6465983760414E+00
(PID.TID 0000.0001) // =======================================================
(PID.TID 0000.0001) // End OBCS MONITOR field statistics
(PID.TID 0000.0001) // =======================================================
 cg2d: Sum(rhs),rhsMax =   3.01153130766649E+00  4.53049542280208E+02
(PID.TID 0000.0001)      cg2d_init_res =   1.39798061500073E-06
(PID.TID 0000.0001)      cg2d_iters(min,last) =      -1      70
(PID.TID 0000.0001)      cg2d_last_res =   9.71992135880817E-12
(PID.TID 0000.0001) // =======================================================
(PID.TID 0000.0001) // Begin MONITOR dynamic field statistics
(PID.TID 0000.0001) // =======================================================
(PID.TID 0000.0001) %MON time_tsnumber                =                   567
(PID.TID 0000.0001) %MON time_secondsf                =   5.6700000000000E+04
(PID.TID 0000.0001) %MON dynstat_eta_max              =   5.7970449951012E+00
(PID.TID 0000.0001) %MON dynstat_eta_min              =  -1.4175687767585E+01
(PID.TID 0000.0001) %MON dynstat_eta_mean             =  -2.5266164453719E+00
(PID.TID 0000.0001) %MON dynstat_eta_sd               =   4.9418317638141E+00
(PID.TID 0000.0001) %MON dynstat_eta_del2             =   1.9058125000943E-01
(PID.TID 0000.0001) %MON dynstat_uvel_max             =   2.3622967943400E-03
(PID.TID 0000.0001) %MON dynstat_uvel_min             =  -6.2888703506969E-03
(PID.TID 0000.0001) %MON dynstat_uvel_mean            =  -1.6838924004068E-09
(PID.TID 0000.0001) %MON dynstat_uvel_sd              =   1.9425663364508E-04
(PID.TID 0000.0001) %MON dynstat_uvel_del2            =   3.3905833766996E-07
(PID.TID 0000.0001) %MON dynstat_vvel_max             =   6.0947379703067E-03
(PID.TID 0000.0001) %MON dynstat_vvel_min             =  -1.7558093878742E-03
(PID.TID 0000.0001) %MON dynstat_vvel_mean            =  -6.0535124692944E-08
(PID.TID 0000.0001) %MON dynstat_vvel_sd              =   1.2377540494528E-04
(PID.TID 0000.0001) %MON dynstat_vvel_del2            =   3.3261471895197E-07
(PID.TID 0000.0001) %MON dynstat_wvel_max             =   2.1761457991234E-04
(PID.TID 0000.0001) %MON dynstat_wvel_min             =  -2.3093287549292E-04
(PID.TID 0000.0001) %MON dynstat_wvel_mean            =   1.4836771960385E-10
(PID.TID 0000.0001) %MON dynstat_wvel_sd              =   1.1560048630285E-05
(PID.TID 0000.0001) %MON dynstat_wvel_del2            =   5.2755285548203E-08
(PID.TID 0000.0001) %MON dynstat_theta_max            =   1.2000000000000E+00
(PID.TID 0000.0001) %MON dynstat_theta_min            =  -1.0000000000000E+00
(PID.TID 0000.0001) %MON dynstat_theta_mean           =   5.6538278005649E-01
(PID.TID 0000.0001) %MON dynstat_theta_sd             =   8.4904000125583E-01
(PID.TID 0000.0001) %MON dynstat_theta_del2           =   9.4540482370767E-07
(PID.TID 0000.0001) %MON dynstat_salt_max             =   3.4700000000000E+01
(PID.TID 0000.0001) %MON dynstat_salt_min             =   3.4000000000000E+01
(PID.TID 0000.0001) %MON dynstat_salt_mean            =   3.4498066724341E+01
(PID.TID 0000.0001) %MON dynstat_salt_sd              =   2.7014966227776E-01
(PID.TID 0000.0001) %MON dynstat_salt_del2            =   3.5942254175544E-07
(PID.TID 0000.0001) %MON advcfl_uvel_max              =   6.2888703506969E-04
(PID.TID 0000.0001) %MON advcfl_vvel_max              =   6.0947379703067E-04
(PID.TID 0000.0001) %MON advcfl_wvel_max              =   1.1546643774646E-03
(PID.TID 0000.0001) %MON advcfl_W_hf_max              =   1.1546643774646E-03
(PID.TID 0000.0001) %MON pe_b_mean                    =  -6.8270143015478E-01
(PID.TID 0000.0001) %MON ke_max                       =   1.2317035054072E-05
(PID.TID 0000.0001) %MON ke_mean                      =   2.6173070312163E-08
(PID.TID 0000.0001) %MON ke_vol                       =   4.6182918839229E+12
(PID.TID 0000.0001) // =======================================================
(PID.TID 0000.0001) // End MONITOR dynamic field statistics
(PID.TID 0000.0001) // =======================================================
(PID.TID 0000.0001) // =======================================================
(PID.TID 0000.0001) // Begin OBCS MONITOR field statistics
(PID.TID 0000.0001) // =======================================================
(PID.TID 0000.0001) %MON obc_N_vVel_max               =  -7.1022097039521E-08
(PID.TID 0000.0001) %MON obc_N_vVel_min               =  -7.1022097039521E-08
(PID.TID 0000.0001) %MON obc_N_vVel_mean              =  -7.1022097039521E-08
(PID.TID 0000.0001) %MON obc_N_vVel_sd                =   5.0242958677881E-15
(PID.TID 0000.0001) %MON obc_N_vVel_Int               =  -4.6874584046084E+00
(PID.TID 0000.0001) // =======================================================
(PID.TID 0000.0001) // End OBCS MONITOR field statistics
(PID.TID 0000.0001) // =======================================================
 cg2d: Sum(rhs),rhsMax =   3.01152848107367E+00  4.53049532522858E+02
(PID.TID 0000.0001)      cg2d_init_res =   1.38319572259616E-06
(PID.TID 0000.0001)      cg2d_iters(min,last) =      -1      70
(PID.TID 0000.0001)      cg2d_last_res =   9.76279177888452E-12
(PID.TID 0000.0001) // =======================================================
(PID.TID 0000.0001) // Begin MONITOR dynamic field statistics
(PID.TID 0000.0001) // =======================================================
(PID.TID 0000.0001) %MON time_tsnumber                =                   568
(PID.TID 0000.0001) %MON time_secondsf                =   5.6800000000000E+04
(PID.TID 0000.0001) %MON dynstat_eta_max              =   5.7970476964270E+00
(PID.TID 0000.0001) %MON dynstat_eta_min              =  -1.4175682283988E+01
(PID.TID 0000.0001) %MON dynstat_eta_mean             =  -2.5266140194994E+00
(PID.TID 0000.0001) %MON dynstat_eta_sd               =   4.9418310038029E+00
(PID.TID 0000.0001) %MON dynstat_eta_del2             =   1.9058125411764E-01
(PID.TID 0000.0001) %MON dynstat_uvel_max             =   2.3661888022772E-03
(PID.TID 0000.0001) %MON dynstat_uvel_min             =  -6.3085558770810E-03
(PID.TID 0000.0001) %MON dynstat_uvel_mean            =  -1.6799468779546E-09
(PID.TID 0000.0001) %MON dynstat_uvel_sd              =   1.9461193341030E-04
(PID.TID 0000.0001) %MON dynstat_uvel_del2            =   3.3965269571836E-07
(PID.TID 0000.0001) %MON dynstat_vvel_max             =   6.1090478205974E-03
(PID.TID 0000.0001) %MON dynstat_vvel_min             =  -1.7514709423851E-03
(PID.TID 0000.0001) %MON dynstat_vvel_mean            =  -6.1145022098743E-08
(PID.TID 0000.0001) %MON dynstat_vvel_sd              =   1.2373399612491E-04
(PID.TID 0000.0001) %MON dynstat_vvel_del2            =   3.3234866002314E-07
(PID.TID 0000.0001) %MON dynstat_wvel_max             =   2.1850604603768E-04
(PID.TID 0000.0001) %MON dynstat_wvel_min             =  -2.3166504391588E-04
(PID.TID 0000.0001) %MON dynstat_wvel_mean            =   1.4870058035491E-10
(PID.TID 0000.0001) %MON dynstat_wvel_sd              =   1.1181897799609E-05
(PID.TID 0000.0001) %MON dynstat_wvel_del2            =   5.1421996120942E-08
(PID.TID 0000.0001) %MON dynstat_theta_max            =   1.2000000000000E+00
(PID.TID 0000.0001) %MON dynstat_theta_min            =  -1.0000000000000E+00
(PID.TID 0000.0001) %MON dynstat_theta_mean           =   5.6538251662710E-01
(PID.TID 0000.0001) %MON dynstat_theta_sd             =   8.4903992218916E-01
(PID.TID 0000.0001) %MON dynstat_theta_del2           =   9.4792443098171E-07
(PID.TID 0000.0001) %MON dynstat_salt_max             =   3.4700000000000E+01
(PID.TID 0000.0001) %MON dynstat_salt_min             =   3.4000000000000E+01
(PID.TID 0000.0001) %MON dynstat_salt_mean            =   3.4498066619753E+01
(PID.TID 0000.0001) %MON dynstat_salt_sd              =   2.7014963550606E-01
(PID.TID 0000.0001) %MON dynstat_salt_del2            =   3.6034741213152E-07
(PID.TID 0000.0001) %MON advcfl_uvel_max              =   6.3085558770810E-04
(PID.TID 0000.0001) %MON advcfl_vvel_max              =   6.1090478205974E-04
(PID.TID 0000.0001) %MON advcfl_wvel_max              =   1.1583252195794E-03
(PID.TID 0000.0001) %MON advcfl_W_hf_max              =   1.1583252195794E-03
(PID.TID 0000.0001) %MON pe_b_mean                    =  -6.8270076527053E-01
(PID.TID 0000.0001) %MON ke_max                       =   1.2392017006863E-05
(PID.TID 0000.0001) %MON ke_mean                      =   2.6235729848641E-08
(PID.TID 0000.0001) %MON ke_vol                       =   4.6182918983145E+12
(PID.TID 0000.0001) // =======================================================
(PID.TID 0000.0001) // End MONITOR dynamic field statistics
(PID.TID 0000.0001) // =======================================================
(PID.TID 0000.0001) // =======================================================
(PID.TID 0000.0001) // Begin OBCS MONITOR field statistics
(PID.TID 0000.0001) // =======================================================
(PID.TID 0000.0001) %MON obc_N_vVel_max               =  -7.1612818919653E-08
(PID.TID 0000.0001) %MON obc_N_vVel_min               =  -7.1612818919655E-08
(PID.TID 0000.0001) %MON obc_N_vVel_mean              =  -7.1612818919653E-08
(PID.TID 0000.0001) %MON obc_N_vVel_sd                =   1.9214237003936E-14
(PID.TID 0000.0001) %MON obc_N_vVel_Int               =  -4.7264460486971E+00
(PID.TID 0000.0001) // =======================================================
(PID.TID 0000.0001) // End OBCS MONITOR field statistics
(PID.TID 0000.0001) // =======================================================
 cg2d: Sum(rhs),rhsMax =   3.01152565092036E+00  4.53049522764203E+02
(PID.TID 0000.0001)      cg2d_init_res =   1.36777865129220E-06
(PID.TID 0000.0001)      cg2d_iters(min,last) =      -1      70
(PID.TID 0000.0001)      cg2d_last_res =   9.80774357637558E-12
(PID.TID 0000.0001) // =======================================================
(PID.TID 0000.0001) // Begin MONITOR dynamic field statistics
(PID.TID 0000.0001) // =======================================================
(PID.TID 0000.0001) %MON time_tsnumber                =                   569
(PID.TID 0000.0001) %MON time_secondsf                =   5.6900000000000E+04
(PID.TID 0000.0001) %MON dynstat_eta_max              =   5.7970504000394E+00
(PID.TID 0000.0001) %MON dynstat_eta_min              =  -1.4175676807867E+01
(PID.TID 0000.0001) %MON dynstat_eta_mean             =  -2.5266115906326E+00
(PID.TID 0000.0001) %MON dynstat_eta_sd               =   4.9418302430013E+00
(PID.TID 0000.0001) %MON dynstat_eta_del2             =   1.9058125823520E-01
(PID.TID 0000.0001) %MON dynstat_uvel_max             =   2.3700898306700E-03
(PID.TID 0000.0001) %MON dynstat_uvel_min             =  -6.3282896223882E-03
(PID.TID 0000.0001) %MON dynstat_uvel_mean            =  -1.6772085666910E-09
(PID.TID 0000.0001) %MON dynstat_uvel_sd              =   1.9496808062373E-04
(PID.TID 0000.0001) %MON dynstat_uvel_del2            =   3.4024935592798E-07
(PID.TID 0000.0001) %MON dynstat_vvel_max             =   6.1233765913042E-03
(PID.TID 0000.0001) %MON dynstat_vvel_min             =  -1.7476492596602E-03
(PID.TID 0000.0001) %MON dynstat_vvel_mean            =  -6.1682650816244E-08
(PID.TID 0000.0001) %MON dynstat_vvel_sd              =   1.2370339588624E-04
(PID.TID 0000.0001) %MON dynstat_vvel_del2            =   3.3211177441899E-07
(PID.TID 0000.0001) %MON dynstat_wvel_max             =   2.1939941331543E-04
(PID.TID 0000.0001) %MON dynstat_wvel_min             =  -2.3239790130623E-04
(PID.TID 0000.0001) %MON dynstat_wvel_mean            =   1.4919726911599E-10
(PID.TID 0000.0001) %MON dynstat_wvel_sd              =   1.0809760744066E-05
(PID.TID 0000.0001) %MON dynstat_wvel_del2            =   5.0021264540816E-08
(PID.TID 0000.0001) %MON dynstat_theta_max            =   1.2000000000000E+00
(PID.TID 0000.0001) %MON dynstat_theta_min            =  -1.0000000000000E+00
(PID.TID 0000.0001) %MON dynstat_theta_mean           =   5.6538225281394E-01
(PID.TID 0000.0001) %MON dynstat_theta_sd             =   8.4903984304586E-01
(PID.TID 0000.0001) %MON dynstat_theta_del2           =   9.5040935489059E-07
(PID.TID 0000.0001) %MON dynstat_salt_max             =   3.4700000000000E+01
(PID.TID 0000.0001) %MON dynstat_salt_min             =   3.4000000000000E+01
(PID.TID 0000.0001) %MON dynstat_salt_mean            =   3.4498066515021E+01
(PID.TID 0000.0001) %MON dynstat_salt_sd              =   2.7014960869581E-01
(PID.TID 0000.0001) %MON dynstat_salt_del2            =   3.6126320945171E-07
(PID.TID 0000.0001) %MON advcfl_uvel_max              =   6.3282896223882E-04
(PID.TID 0000.0001) %MON advcfl_vvel_max              =   6.1233765913042E-04
(PID.TID 0000.0001) %MON advcfl_wvel_max              =   1.1619895065312E-03
(PID.TID 0000.0001) %MON advcfl_W_hf_max              =   1.1619895065312E-03
(PID.TID 0000.0001) %MON pe_b_mean                    =  -6.8270009949168E-01
(PID.TID 0000.0001) %MON ke_max                       =   1.2467425501798E-05
(PID.TID 0000.0001) %MON ke_mean                      =   2.6300014035067E-08
(PID.TID 0000.0001) %MON ke_vol                       =   4.6182919127242E+12
(PID.TID 0000.0001) // =======================================================
(PID.TID 0000.0001) // End MONITOR dynamic field statistics
(PID.TID 0000.0001) // =======================================================
(PID.TID 0000.0001) // =======================================================
(PID.TID 0000.0001) // Begin OBCS MONITOR field statistics
(PID.TID 0000.0001) // =======================================================
(PID.TID 0000.0001) %MON obc_N_vVel_max               =  -7.2152565136642E-08
(PID.TID 0000.0001) %MON obc_N_vVel_min               =  -7.2152565136645E-08
(PID.TID 0000.0001) %MON obc_N_vVel_mean              =  -7.2152565136642E-08
(PID.TID 0000.0001) %MON obc_N_vVel_sd                =   2.2399007471773E-14
(PID.TID 0000.0001) %MON obc_N_vVel_Int               =  -4.7620692990184E+00
(PID.TID 0000.0001) // =======================================================
(PID.TID 0000.0001) // End OBCS MONITOR field statistics
(PID.TID 0000.0001) // =======================================================
 cg2d: Sum(rhs),rhsMax =   3.01152281724660E+00  4.53049513011778E+02
(PID.TID 0000.0001)      cg2d_init_res =   1.35254863748916E-06
(PID.TID 0000.0001)      cg2d_iters(min,last) =      -1      70
(PID.TID 0000.0001)      cg2d_last_res =   9.85235656974897E-12
(PID.TID 0000.0001) // =======================================================
(PID.TID 0000.0001) // Begin MONITOR dynamic field statistics
(PID.TID 0000.0001) // =======================================================
(PID.TID 0000.0001) %MON time_tsnumber                =                   570
(PID.TID 0000.0001) %MON time_secondsf                =   5.7000000000000E+04
(PID.TID 0000.0001) %MON dynstat_eta_max              =   5.7970531059063E+00
(PID.TID 0000.0001) %MON dynstat_eta_min              =  -1.4175671339492E+01
(PID.TID 0000.0001) %MON dynstat_eta_mean             =  -2.5266091588471E+00
(PID.TID 0000.0001) %MON dynstat_eta_sd               =   4.9418294814522E+00
(PID.TID 0000.0001) %MON dynstat_eta_del2             =   1.9058126236226E-01
(PID.TID 0000.0001) %MON dynstat_uvel_max             =   2.3739998795769E-03
(PID.TID 0000.0001) %MON dynstat_uvel_min             =  -6.3480717213773E-03
(PID.TID 0000.0001) %MON dynstat_uvel_mean            =  -1.6755733300162E-09
(PID.TID 0000.0001) %MON dynstat_uvel_sd              =   1.9532507985586E-04
(PID.TID 0000.0001) %MON dynstat_uvel_del2            =   3.4084823270024E-07
(PID.TID 0000.0001) %MON dynstat_vvel_max             =   6.1377243723801E-03
(PID.TID 0000.0001) %MON dynstat_vvel_min             =  -1.7540086211998E-03
(PID.TID 0000.0001) %MON dynstat_vvel_mean            =  -6.2127202790288E-08
(PID.TID 0000.0001) %MON dynstat_vvel_sd              =   1.2369262915862E-04
(PID.TID 0000.0001) %MON dynstat_vvel_del2            =   3.3194285035518E-07
(PID.TID 0000.0001) %MON dynstat_wvel_max             =   2.2029468567184E-04
(PID.TID 0000.0001) %MON dynstat_wvel_min             =  -2.3313144683251E-04
(PID.TID 0000.0001) %MON dynstat_wvel_mean            =   1.4984129058753E-10
(PID.TID 0000.0001) %MON dynstat_wvel_sd              =   1.0464434778113E-05
(PID.TID 0000.0001) %MON dynstat_wvel_del2            =   4.8622205631947E-08
(PID.TID 0000.0001) %MON dynstat_theta_max            =   1.2000000000000E+00
(PID.TID 0000.0001) %MON dynstat_theta_min            =  -1.0000000000000E+00
(PID.TID 0000.0001) %MON dynstat_theta_mean           =   5.6538198862404E-01
(PID.TID 0000.0001) %MON dynstat_theta_sd             =   8.4903976382691E-01
(PID.TID 0000.0001) %MON dynstat_theta_del2           =   9.5279882774276E-07
(PID.TID 0000.0001) %MON dynstat_salt_max             =   3.4700000000000E+01
(PID.TID 0000.0001) %MON dynstat_salt_min             =   3.4000000000000E+01
(PID.TID 0000.0001) %MON dynstat_salt_mean            =   3.4498066410148E+01
(PID.TID 0000.0001) %MON dynstat_salt_sd              =   2.7014958184742E-01
(PID.TID 0000.0001) %MON dynstat_salt_del2            =   3.6215371626203E-07
(PID.TID 0000.0001) %MON advcfl_uvel_max              =   6.3480717213773E-04
(PID.TID 0000.0001) %MON advcfl_vvel_max              =   6.1377243723801E-04
(PID.TID 0000.0001) %MON advcfl_wvel_max              =   1.1656572341626E-03
(PID.TID 0000.0001) %MON advcfl_W_hf_max              =   1.1656572341626E-03
(PID.TID 0000.0001) %MON pe_b_mean                    =  -6.8269943283761E-01
(PID.TID 0000.0001) %MON ke_max                       =   1.2543262873896E-05
(PID.TID 0000.0001) %MON ke_mean                      =   2.6367039881590E-08
(PID.TID 0000.0001) %MON ke_vol                       =   4.6182919271516E+12
(PID.TID 0000.0001) // =======================================================
(PID.TID 0000.0001) // End MONITOR dynamic field statistics
(PID.TID 0000.0001) // =======================================================
(PID.TID 0000.0001) // =======================================================
(PID.TID 0000.0001) // Begin OBCS MONITOR field statistics
(PID.TID 0000.0001) // =======================================================
(PID.TID 0000.0001) %MON obc_N_vVel_max               =  -7.2620736292527E-08
(PID.TID 0000.0001) %MON obc_N_vVel_min               =  -7.2620736292528E-08
(PID.TID 0000.0001) %MON obc_N_vVel_mean              =  -7.2620736292528E-08
(PID.TID 0000.0001) %MON obc_N_vVel_sd                =  -3.2422183204584E-28
(PID.TID 0000.0001) %MON obc_N_vVel_Int               =  -4.7929685953068E+00
(PID.TID 0000.0001) // =======================================================
(PID.TID 0000.0001) // End OBCS MONITOR field statistics
(PID.TID 0000.0001) // =======================================================
 cg2d: Sum(rhs),rhsMax =   3.01151998011711E+00  4.53049503272693E+02
(PID.TID 0000.0001)      cg2d_init_res =   1.33835115698588E-06
(PID.TID 0000.0001)      cg2d_iters(min,last) =      -1      70
(PID.TID 0000.0001)      cg2d_last_res =   9.89362472009283E-12
(PID.TID 0000.0001) // =======================================================
(PID.TID 0000.0001) // Begin MONITOR dynamic field statistics
(PID.TID 0000.0001) // =======================================================
(PID.TID 0000.0001) %MON time_tsnumber                =                   571
(PID.TID 0000.0001) %MON time_secondsf                =   5.7100000000000E+04
(PID.TID 0000.0001) %MON dynstat_eta_max              =   5.7970558139617E+00
(PID.TID 0000.0001) %MON dynstat_eta_min              =  -1.4175665879153E+01
(PID.TID 0000.0001) %MON dynstat_eta_mean             =  -2.5266067242368E+00
(PID.TID 0000.0001) %MON dynstat_eta_sd               =   4.9418287192047E+00
(PID.TID 0000.0001) %MON dynstat_eta_del2             =   1.9058126649905E-01
(PID.TID 0000.0001) %MON dynstat_uvel_max             =   2.3779189484632E-03
(PID.TID 0000.0001) %MON dynstat_uvel_min             =  -6.3679023085417E-03
(PID.TID 0000.0001) %MON dynstat_uvel_mean            =  -1.6749054616656E-09
(PID.TID 0000.0001) %MON dynstat_uvel_sd              =   1.9568293774795E-04
(PID.TID 0000.0001) %MON dynstat_uvel_del2            =   3.4144926344848E-07
(PID.TID 0000.0001) %MON dynstat_vvel_max             =   6.1520912530064E-03
(PID.TID 0000.0001) %MON dynstat_vvel_min             =  -1.7603774536186E-03
(PID.TID 0000.0001) %MON dynstat_vvel_mean            =  -6.2461258511430E-08
(PID.TID 0000.0001) %MON dynstat_vvel_sd              =   1.2370967788846E-04
(PID.TID 0000.0001) %MON dynstat_vvel_del2            =   3.3187769991466E-07
(PID.TID 0000.0001) %MON dynstat_wvel_max             =   2.2119186706585E-04
(PID.TID 0000.0001) %MON dynstat_wvel_min             =  -2.3386567972263E-04
(PID.TID 0000.0001) %MON dynstat_wvel_mean            =   1.5061129170514E-10
(PID.TID 0000.0001) %MON dynstat_wvel_sd              =   1.0167305654441E-05
(PID.TID 0000.0001) %MON dynstat_wvel_del2            =   4.7300811910336E-08
(PID.TID 0000.0001) %MON dynstat_theta_max            =   1.2000000000000E+00
(PID.TID 0000.0001) %MON dynstat_theta_min            =  -1.0000000000000E+00
(PID.TID 0000.0001) %MON dynstat_theta_mean           =   5.6538172406583E-01
(PID.TID 0000.0001) %MON dynstat_theta_sd             =   8.4903968452345E-01
(PID.TID 0000.0001) %MON dynstat_theta_del2           =   9.5503656550486E-07
(PID.TID 0000.0001) %MON dynstat_salt_max             =   3.4700000000000E+01
(PID.TID 0000.0001) %MON dynstat_salt_min             =   3.4000000000000E+01
(PID.TID 0000.0001) %MON dynstat_salt_mean            =   3.4498066305135E+01
(PID.TID 0000.0001) %MON dynstat_salt_sd              =   2.7014955495795E-01
(PID.TID 0000.0001) %MON dynstat_salt_del2            =   3.6300401717373E-07
(PID.TID 0000.0001) %MON advcfl_uvel_max              =   6.3679023085417E-04
(PID.TID 0000.0001) %MON advcfl_vvel_max              =   6.1520912530064E-04
(PID.TID 0000.0001) %MON advcfl_wvel_max              =   1.1693283986132E-03
(PID.TID 0000.0001) %MON advcfl_W_hf_max              =   1.1693283986132E-03
(PID.TID 0000.0001) %MON pe_b_mean                    =  -6.8269876533106E-01
(PID.TID 0000.0001) %MON ke_max                       =   1.2619531466902E-05
(PID.TID 0000.0001) %MON ke_mean                      =   2.6437796296157E-08
(PID.TID 0000.0001) %MON ke_vol                       =   4.6182919415964E+12
(PID.TID 0000.0001) // =======================================================
(PID.TID 0000.0001) // End MONITOR dynamic field statistics
(PID.TID 0000.0001) // =======================================================
(PID.TID 0000.0001) // =======================================================
(PID.TID 0000.0001) // Begin OBCS MONITOR field statistics
(PID.TID 0000.0001) // =======================================================
(PID.TID 0000.0001) %MON obc_N_vVel_max               =  -7.2999395813430E-08
(PID.TID 0000.0001) %MON obc_N_vVel_min               =  -7.2999395813430E-08
(PID.TID 0000.0001) %MON obc_N_vVel_mean              =  -7.2999395813430E-08
(PID.TID 0000.0001) %MON obc_N_vVel_sd                =   1.1339502967548E-14
(PID.TID 0000.0001) %MON obc_N_vVel_Int               =  -4.8179601236864E+00
(PID.TID 0000.0001) // =======================================================
(PID.TID 0000.0001) // End OBCS MONITOR field statistics
(PID.TID 0000.0001) // =======================================================
 cg2d: Sum(rhs),rhsMax =   3.01151713961225E+00  4.53049493554955E+02
(PID.TID 0000.0001)      cg2d_init_res =   1.32603284148818E-06
(PID.TID 0000.0001)      cg2d_iters(min,last) =      -1      70
(PID.TID 0000.0001)      cg2d_last_res =   9.92882364071330E-12
(PID.TID 0000.0001) // =======================================================
(PID.TID 0000.0001) // Begin MONITOR dynamic field statistics
(PID.TID 0000.0001) // =======================================================
(PID.TID 0000.0001) %MON time_tsnumber                =                   572
(PID.TID 0000.0001) %MON time_secondsf                =   5.7200000000000E+04
(PID.TID 0000.0001) %MON dynstat_eta_max              =   5.7970585241103E+00
(PID.TID 0000.0001) %MON dynstat_eta_min              =  -1.4175660427183E+01
(PID.TID 0000.0001) %MON dynstat_eta_mean             =  -2.5266042869137E+00
(PID.TID 0000.0001) %MON dynstat_eta_sd               =   4.9418279563095E+00
(PID.TID 0000.0001) %MON dynstat_eta_del2             =   1.9058127064580E-01
(PID.TID 0000.0001) %MON dynstat_uvel_max             =   2.3818470360908E-03
(PID.TID 0000.0001) %MON dynstat_uvel_min             =  -6.3877815178603E-03
(PID.TID 0000.0001) %MON dynstat_uvel_mean            =  -1.6750456733767E-09
(PID.TID 0000.0001) %MON dynstat_uvel_sd              =   1.9604166393019E-04
(PID.TID 0000.0001) %MON dynstat_uvel_del2            =   3.4205241390955E-07
(PID.TID 0000.0001) %MON dynstat_vvel_max             =   6.1664773211809E-03
(PID.TID 0000.0001) %MON dynstat_vvel_min             =  -1.7667557553533E-03
(PID.TID 0000.0001) %MON dynstat_vvel_mean            =  -6.2671380594853E-08
(PID.TID 0000.0001) %MON dynstat_vvel_sd              =   1.2376103522977E-04
(PID.TID 0000.0001) %MON dynstat_vvel_del2            =   3.3194704744206E-07
(PID.TID 0000.0001) %MON dynstat_wvel_max             =   2.2209096145487E-04
(PID.TID 0000.0001) %MON dynstat_wvel_min             =  -2.3460059920943E-04
(PID.TID 0000.0001) %MON dynstat_wvel_mean            =   1.5148124755447E-10
(PID.TID 0000.0001) %MON dynstat_wvel_sd              =   9.9385764495909E-06
(PID.TID 0000.0001) %MON dynstat_wvel_del2            =   4.6135976083768E-08
(PID.TID 0000.0001) %MON dynstat_theta_max            =   1.2000000000000E+00
(PID.TID 0000.0001) %MON dynstat_theta_min            =  -1.0000000000000E+00
(PID.TID 0000.0001) %MON dynstat_theta_mean           =   5.6538145914940E-01
(PID.TID 0000.0001) %MON dynstat_theta_sd             =   8.4903960513139E-01
(PID.TID 0000.0001) %MON dynstat_theta_del2           =   9.5707429064983E-07
(PID.TID 0000.0001) %MON dynstat_salt_max             =   3.4700000000000E+01
(PID.TID 0000.0001) %MON dynstat_salt_min             =   3.4000000000000E+01
(PID.TID 0000.0001) %MON dynstat_salt_mean            =   3.4498066199987E+01
(PID.TID 0000.0001) %MON dynstat_salt_sd              =   2.7014952802603E-01
(PID.TID 0000.0001) %MON dynstat_salt_del2            =   3.6380121454387E-07
(PID.TID 0000.0001) %MON advcfl_uvel_max              =   6.3877815178603E-04
(PID.TID 0000.0001) %MON advcfl_vvel_max              =   6.1664773211809E-04
(PID.TID 0000.0001) %MON advcfl_wvel_max              =   1.1730029960471E-03
(PID.TID 0000.0001) %MON advcfl_W_hf_max              =   1.1730029960471E-03
(PID.TID 0000.0001) %MON pe_b_mean                    =  -6.8269809699768E-01
(PID.TID 0000.0001) %MON ke_max                       =   1.2696233632094E-05
(PID.TID 0000.0001) %MON ke_mean                      =   2.6513091008946E-08
(PID.TID 0000.0001) %MON ke_vol                       =   4.6182919560580E+12
(PID.TID 0000.0001) // =======================================================
(PID.TID 0000.0001) // End MONITOR dynamic field statistics
(PID.TID 0000.0001) // =======================================================
(PID.TID 0000.0001) // =======================================================
(PID.TID 0000.0001) // Begin OBCS MONITOR field statistics
(PID.TID 0000.0001) // =======================================================
(PID.TID 0000.0001) %MON obc_N_vVel_max               =  -7.3273858306407E-08
(PID.TID 0000.0001) %MON obc_N_vVel_min               =  -7.3273858306407E-08
(PID.TID 0000.0001) %MON obc_N_vVel_mean              =  -7.3273858306407E-08
(PID.TID 0000.0001) %MON obc_N_vVel_sd                =  -1.2464002302492E-28
(PID.TID 0000.0001) %MON obc_N_vVel_Int               =  -4.8360746482229E+00
(PID.TID 0000.0001) // =======================================================
(PID.TID 0000.0001) // End OBCS MONITOR field statistics
(PID.TID 0000.0001) // =======================================================
 cg2d: Sum(rhs),rhsMax =   3.01151429585130E+00  4.53049483862945E+02
(PID.TID 0000.0001)      cg2d_init_res =   1.31634849568561E-06
(PID.TID 0000.0001)      cg2d_iters(min,last) =      -1      70
(PID.TID 0000.0001)      cg2d_last_res =   9.95645634670684E-12
(PID.TID 0000.0001) // =======================================================
(PID.TID 0000.0001) // Begin MONITOR dynamic field statistics
(PID.TID 0000.0001) // =======================================================
(PID.TID 0000.0001) %MON time_tsnumber                =                   573
(PID.TID 0000.0001) %MON time_secondsf                =   5.7300000000000E+04
(PID.TID 0000.0001) %MON dynstat_eta_max              =   5.7970612362432E+00
(PID.TID 0000.0001) %MON dynstat_eta_min              =  -1.4175654983922E+01
(PID.TID 0000.0001) %MON dynstat_eta_mean             =  -2.5266018470024E+00
(PID.TID 0000.0001) %MON dynstat_eta_sd               =   4.9418271928126E+00
(PID.TID 0000.0001) %MON dynstat_eta_del2             =   1.9058127480243E-01
(PID.TID 0000.0001) %MON dynstat_uvel_max             =   2.3857841404702E-03
(PID.TID 0000.0001) %MON dynstat_uvel_min             =  -6.4077094830344E-03
(PID.TID 0000.0001) %MON dynstat_uvel_mean            =  -1.6758148379540E-09
(PID.TID 0000.0001) %MON dynstat_uvel_sd              =   1.9640127173398E-04
(PID.TID 0000.0001) %MON dynstat_uvel_del2            =   3.4265768068496E-07
(PID.TID 0000.0001) %MON dynstat_vvel_max             =   6.1808826638150E-03
(PID.TID 0000.0001) %MON dynstat_vvel_min             =  -1.7731435255373E-03
(PID.TID 0000.0001) %MON dynstat_vvel_mean            =  -6.2748504947922E-08
(PID.TID 0000.0001) %MON dynstat_vvel_sd              =   1.2385133782727E-04
(PID.TID 0000.0001) %MON dynstat_vvel_del2            =   3.3217464112038E-07
(PID.TID 0000.0001) %MON dynstat_wvel_max             =   2.2299197275260E-04
(PID.TID 0000.0001) %MON dynstat_wvel_min             =  -2.3533620456648E-04
(PID.TID 0000.0001) %MON dynstat_wvel_mean            =   1.5242377616398E-10
(PID.TID 0000.0001) %MON dynstat_wvel_sd              =   9.7949862921662E-06
(PID.TID 0000.0001) %MON dynstat_wvel_del2            =   4.5203650146744E-08
(PID.TID 0000.0001) %MON dynstat_theta_max            =   1.2000000000000E+00
(PID.TID 0000.0001) %MON dynstat_theta_min            =  -1.0000000000000E+00
(PID.TID 0000.0001) %MON dynstat_theta_mean           =   5.6538119388618E-01
(PID.TID 0000.0001) %MON dynstat_theta_sd             =   8.4903952564242E-01
(PID.TID 0000.0001) %MON dynstat_theta_del2           =   9.5887413628194E-07
(PID.TID 0000.0001) %MON dynstat_salt_max             =   3.4700000000000E+01
(PID.TID 0000.0001) %MON dynstat_salt_min             =   3.4000000000000E+01
(PID.TID 0000.0001) %MON dynstat_salt_mean            =   3.4498066094706E+01
(PID.TID 0000.0001) %MON dynstat_salt_sd              =   2.7014950104902E-01
(PID.TID 0000.0001) %MON dynstat_salt_del2            =   3.6453533160473E-07
(PID.TID 0000.0001) %MON advcfl_uvel_max              =   6.4077094830344E-04
(PID.TID 0000.0001) %MON advcfl_vvel_max              =   6.1808826638150E-04
(PID.TID 0000.0001) %MON advcfl_wvel_max              =   1.1766810228324E-03
(PID.TID 0000.0001) %MON advcfl_W_hf_max              =   1.1766810228324E-03
(PID.TID 0000.0001) %MON pe_b_mean                    =  -6.8269742786477E-01
(PID.TID 0000.0001) %MON ke_max                       =   1.2773371729063E-05
(PID.TID 0000.0001) %MON ke_mean                      =   2.6593507015858E-08
(PID.TID 0000.0001) %MON ke_vol                       =   4.6182919705357E+12
(PID.TID 0000.0001) // =======================================================
(PID.TID 0000.0001) // End MONITOR dynamic field statistics
(PID.TID 0000.0001) // =======================================================
(PID.TID 0000.0001) // =======================================================
(PID.TID 0000.0001) // Begin OBCS MONITOR field statistics
(PID.TID 0000.0001) // =======================================================
(PID.TID 0000.0001) %MON obc_N_vVel_max               =  -7.3433244767698E-08
(PID.TID 0000.0001) %MON obc_N_vVel_min               =  -7.3433244767700E-08
(PID.TID 0000.0001) %MON obc_N_vVel_mean              =  -7.3433244767698E-08
(PID.TID 0000.0001) %MON obc_N_vVel_sd                =   2.2921198984285E-14
(PID.TID 0000.0001) %MON obc_N_vVel_Int               =  -4.8465941546681E+00
(PID.TID 0000.0001) // =======================================================
(PID.TID 0000.0001) // End OBCS MONITOR field statistics
(PID.TID 0000.0001) // =======================================================
 cg2d: Sum(rhs),rhsMax =   3.01151144895837E+00  4.53049474201750E+02
(PID.TID 0000.0001)      cg2d_init_res =   1.30994823248264E-06
(PID.TID 0000.0001)      cg2d_iters(min,last) =      -1      70
(PID.TID 0000.0001)      cg2d_last_res =   9.97840521050061E-12
(PID.TID 0000.0001) // =======================================================
(PID.TID 0000.0001) // Begin MONITOR dynamic field statistics
(PID.TID 0000.0001) // =======================================================
(PID.TID 0000.0001) %MON time_tsnumber                =                   574
(PID.TID 0000.0001) %MON time_secondsf                =   5.7400000000000E+04
(PID.TID 0000.0001) %MON dynstat_eta_max              =   5.7970639502518E+00
(PID.TID 0000.0001) %MON dynstat_eta_min              =  -1.4175649549734E+01
(PID.TID 0000.0001) %MON dynstat_eta_mean             =  -2.5265994046354E+00
(PID.TID 0000.0001) %MON dynstat_eta_sd               =   4.9418264287625E+00
(PID.TID 0000.0001) %MON dynstat_eta_del2             =   1.9058127896909E-01
(PID.TID 0000.0001) %MON dynstat_uvel_max             =   2.3897302589582E-03
(PID.TID 0000.0001) %MON dynstat_uvel_min             =  -6.4276863373927E-03
(PID.TID 0000.0001) %MON dynstat_uvel_mean            =  -1.6769974667504E-09
(PID.TID 0000.0001) %MON dynstat_uvel_sd              =   1.9676177852076E-04
(PID.TID 0000.0001) %MON dynstat_uvel_del2            =   3.4326509540731E-07
(PID.TID 0000.0001) %MON dynstat_vvel_max             =   6.1953073665071E-03
(PID.TID 0000.0001) %MON dynstat_vvel_min             =  -1.7795407641543E-03
(PID.TID 0000.0001) %MON dynstat_vvel_mean            =  -6.2688197512546E-08
(PID.TID 0000.0001) %MON dynstat_vvel_sd              =   1.2398310089891E-04
(PID.TID 0000.0001) %MON dynstat_vvel_del2            =   3.3257572577533E-07
(PID.TID 0000.0001) %MON dynstat_wvel_max             =   2.2389490496292E-04
(PID.TID 0000.0001) %MON dynstat_wvel_min             =  -2.3607249515128E-04
(PID.TID 0000.0001) %MON dynstat_wvel_mean            =   1.5340698450205E-10
(PID.TID 0000.0001) %MON dynstat_wvel_sd              =   9.7474175764681E-06
(PID.TID 0000.0001) %MON dynstat_wvel_del2            =   4.4569362887516E-08
(PID.TID 0000.0001) %MON dynstat_theta_max            =   1.2000000000000E+00
(PID.TID 0000.0001) %MON dynstat_theta_min            =  -1.0000000000000E+00
(PID.TID 0000.0001) %MON dynstat_theta_mean           =   5.6538092828880E-01
(PID.TID 0000.0001) %MON dynstat_theta_sd             =   8.4903944604916E-01
(PID.TID 0000.0001) %MON dynstat_theta_del2           =   9.6041073241337E-07
(PID.TID 0000.0001) %MON dynstat_salt_max             =   3.4700000000000E+01
(PID.TID 0000.0001) %MON dynstat_salt_min             =   3.4000000000000E+01
(PID.TID 0000.0001) %MON dynstat_salt_mean            =   3.4498065989297E+01
(PID.TID 0000.0001) %MON dynstat_salt_sd              =   2.7014947402468E-01
(PID.TID 0000.0001) %MON dynstat_salt_del2            =   3.6519956421139E-07
(PID.TID 0000.0001) %MON advcfl_uvel_max              =   6.4276863373927E-04
(PID.TID 0000.0001) %MON advcfl_vvel_max              =   6.1953073665071E-04
(PID.TID 0000.0001) %MON advcfl_wvel_max              =   1.1803624757564E-03
(PID.TID 0000.0001) %MON advcfl_W_hf_max              =   1.1803624757564E-03
(PID.TID 0000.0001) %MON pe_b_mean                    =  -6.8269675796039E-01
(PID.TID 0000.0001) %MON ke_max                       =   1.2850948125522E-05
(PID.TID 0000.0001) %MON ke_mean                      =   2.6679370982898E-08
(PID.TID 0000.0001) %MON ke_vol                       =   4.6182919850288E+12
(PID.TID 0000.0001) // =======================================================
(PID.TID 0000.0001) // End MONITOR dynamic field statistics
(PID.TID 0000.0001) // =======================================================
(PID.TID 0000.0001) // =======================================================
(PID.TID 0000.0001) // Begin OBCS MONITOR field statistics
(PID.TID 0000.0001) // =======================================================
(PID.TID 0000.0001) %MON obc_N_vVel_max               =  -7.3470558421218E-08
(PID.TID 0000.0001) %MON obc_N_vVel_min               =  -7.3470558421218E-08
(PID.TID 0000.0001) %MON obc_N_vVel_mean              =  -7.3470558421218E-08
(PID.TID 0000.0001) %MON obc_N_vVel_sd                =  -1.4909471108677E-28
(PID.TID 0000.0001) %MON obc_N_vVel_Int               =  -4.8490568558004E+00
(PID.TID 0000.0001) // =======================================================
(PID.TID 0000.0001) // End OBCS MONITOR field statistics
(PID.TID 0000.0001) // =======================================================
 cg2d: Sum(rhs),rhsMax =   3.01150859906608E+00  4.53049464575566E+02
(PID.TID 0000.0001)      cg2d_init_res =   1.30726224818876E-06
(PID.TID 0000.0001)      cg2d_iters(min,last) =      -1      70
(PID.TID 0000.0001)      cg2d_last_res =   9.99776712473224E-12
(PID.TID 0000.0001) // =======================================================
(PID.TID 0000.0001) // Begin MONITOR dynamic field statistics
(PID.TID 0000.0001) // =======================================================
(PID.TID 0000.0001) %MON time_tsnumber                =                   575
(PID.TID 0000.0001) %MON time_secondsf                =   5.7500000000000E+04
(PID.TID 0000.0001) %MON dynstat_eta_max              =   5.7970666660078E+00
(PID.TID 0000.0001) %MON dynstat_eta_min              =  -1.4175644124967E+01
(PID.TID 0000.0001) %MON dynstat_eta_mean             =  -2.5265969599474E+00
(PID.TID 0000.0001) %MON dynstat_eta_sd               =   4.9418256641998E+00
(PID.TID 0000.0001) %MON dynstat_eta_del2             =   1.9058128314558E-01
(PID.TID 0000.0001) %MON dynstat_uvel_max             =   2.3936853881281E-03
(PID.TID 0000.0001) %MON dynstat_uvel_min             =  -6.4477122179900E-03
(PID.TID 0000.0001) %MON dynstat_uvel_mean            =  -1.6783797860685E-09
(PID.TID 0000.0001) %MON dynstat_uvel_sd              =   1.9712320586070E-04
(PID.TID 0000.0001) %MON dynstat_uvel_del2            =   3.4387471907327E-07
(PID.TID 0000.0001) %MON dynstat_vvel_max             =   6.2097515136224E-03
(PID.TID 0000.0001) %MON dynstat_vvel_min             =  -1.7859474724240E-03
(PID.TID 0000.0001) %MON dynstat_vvel_mean            =  -6.2490786204437E-08
(PID.TID 0000.0001) %MON dynstat_vvel_sd              =   1.2415657479827E-04
(PID.TID 0000.0001) %MON dynstat_vvel_del2            =   3.3315599402673E-07
(PID.TID 0000.0001) %MON dynstat_wvel_max             =   2.2479976212000E-04
(PID.TID 0000.0001) %MON dynstat_wvel_min             =  -2.3680947082649E-04
(PID.TID 0000.0001) %MON dynstat_wvel_mean            =   1.5439945673966E-10
(PID.TID 0000.0001) %MON dynstat_wvel_sd              =   9.7990584603557E-06
(PID.TID 0000.0001) %MON dynstat_wvel_del2            =   4.4280114244407E-08
(PID.TID 0000.0001) %MON dynstat_theta_max            =   1.2000000000000E+00
(PID.TID 0000.0001) %MON dynstat_theta_min            =  -1.0000000000000E+00
(PID.TID 0000.0001) %MON dynstat_theta_mean           =   5.6538066237079E-01
(PID.TID 0000.0001) %MON dynstat_theta_sd             =   8.4903936632625E-01
(PID.TID 0000.0001) %MON dynstat_theta_del2           =   9.6167301955581E-07
(PID.TID 0000.0001) %MON dynstat_salt_max             =   3.4700000000000E+01
(PID.TID 0000.0001) %MON dynstat_salt_min             =   3.4000000000000E+01
(PID.TID 0000.0001) %MON dynstat_salt_mean            =   3.4498065883763E+01
(PID.TID 0000.0001) %MON dynstat_salt_sd              =   2.7014944694474E-01
(PID.TID 0000.0001) %MON dynstat_salt_del2            =   3.6579100781650E-07
(PID.TID 0000.0001) %MON advcfl_uvel_max              =   6.4477122179900E-04
(PID.TID 0000.0001) %MON advcfl_vvel_max              =   6.2097515136224E-04
(PID.TID 0000.0001) %MON advcfl_wvel_max              =   1.1840473541325E-03
(PID.TID 0000.0001) %MON advcfl_W_hf_max              =   1.1840473541325E-03
(PID.TID 0000.0001) %MON pe_b_mean                    =  -6.8269608731211E-01
(PID.TID 0000.0001) %MON ke_max                       =   1.2928965211322E-05
(PID.TID 0000.0001) %MON ke_mean                      =   2.6770735506446E-08
(PID.TID 0000.0001) %MON ke_vol                       =   4.6182919995365E+12
(PID.TID 0000.0001) // =======================================================
(PID.TID 0000.0001) // End MONITOR dynamic field statistics
(PID.TID 0000.0001) // =======================================================
(PID.TID 0000.0001) // =======================================================
(PID.TID 0000.0001) // Begin OBCS MONITOR field statistics
(PID.TID 0000.0001) // =======================================================
(PID.TID 0000.0001) %MON obc_N_vVel_max               =  -7.3383182302990E-08
(PID.TID 0000.0001) %MON obc_N_vVel_min               =  -7.3383182302992E-08
(PID.TID 0000.0001) %MON obc_N_vVel_mean              =  -7.3383182302990E-08
(PID.TID 0000.0001) %MON obc_N_vVel_sd                =   1.3644455783657E-14
(PID.TID 0000.0001) %MON obc_N_vVel_Int               =  -4.8432900319974E+00
(PID.TID 0000.0001) // =======================================================
(PID.TID 0000.0001) // End OBCS MONITOR field statistics
(PID.TID 0000.0001) // =======================================================
 cg2d: Sum(rhs),rhsMax =   3.01150574630232E+00  4.53049454988613E+02
(PID.TID 0000.0001)      cg2d_init_res =   1.30851839777754E-06
(PID.TID 0000.0001)      cg2d_iters(min,last) =      -1      71
(PID.TID 0000.0001)      cg2d_last_res =   7.16830536684733E-12
(PID.TID 0000.0001) // =======================================================
(PID.TID 0000.0001) // Begin MONITOR dynamic field statistics
(PID.TID 0000.0001) // =======================================================
(PID.TID 0000.0001) %MON time_tsnumber                =                   576
(PID.TID 0000.0001) %MON time_secondsf                =   5.7600000000000E+04
(PID.TID 0000.0001) %MON dynstat_eta_max              =   5.7970693847101E+00
(PID.TID 0000.0001) %MON dynstat_eta_min              =  -1.4175638708511E+01
(PID.TID 0000.0001) %MON dynstat_eta_mean             =  -2.5265945130692E+00
(PID.TID 0000.0001) %MON dynstat_eta_sd               =   4.9418248991686E+00
(PID.TID 0000.0001) %MON dynstat_eta_del2             =   1.9058128733251E-01
(PID.TID 0000.0001) %MON dynstat_uvel_max             =   2.3976495263369E-03
(PID.TID 0000.0001) %MON dynstat_uvel_min             =  -6.4677872548744E-03
(PID.TID 0000.0001) %MON dynstat_uvel_mean            =  -1.6797625273198E-09
(PID.TID 0000.0001) %MON dynstat_uvel_sd              =   1.9748557926921E-04
(PID.TID 0000.0001) %MON dynstat_uvel_del2            =   3.4448664209755E-07
(PID.TID 0000.0001) %MON dynstat_vvel_max             =   6.2242151969336E-03
(PID.TID 0000.0001) %MON dynstat_vvel_min             =  -1.7923636864481E-03
(PID.TID 0000.0001) %MON dynstat_vvel_mean            =  -6.2161858515192E-08
(PID.TID 0000.0001) %MON dynstat_vvel_sd              =   1.2436973382989E-04
(PID.TID 0000.0001) %MON dynstat_vvel_del2            =   3.3391110656081E-07
(PID.TID 0000.0001) %MON dynstat_wvel_max             =   2.2570655219662E-04
(PID.TID 0000.0001) %MON dynstat_wvel_min             =  -2.3754714251621E-04
(PID.TID 0000.0001) %MON dynstat_wvel_mean            =   1.5536513065660E-10
(PID.TID 0000.0001) %MON dynstat_wvel_sd              =   9.9447734357803E-06
(PID.TID 0000.0001) %MON dynstat_wvel_del2            =   4.4357459291313E-08
(PID.TID 0000.0001) %MON dynstat_theta_max            =   1.2000000000000E+00
(PID.TID 0000.0001) %MON dynstat_theta_min            =  -1.0000000000000E+00
(PID.TID 0000.0001) %MON dynstat_theta_mean           =   5.6538039614625E-01
(PID.TID 0000.0001) %MON dynstat_theta_sd             =   8.4903928644005E-01
(PID.TID 0000.0001) %MON dynstat_theta_del2           =   9.6266408514084E-07
(PID.TID 0000.0001) %MON dynstat_salt_max             =   3.4700000000000E+01
(PID.TID 0000.0001) %MON dynstat_salt_min             =   3.4000000000000E+01
(PID.TID 0000.0001) %MON dynstat_salt_mean            =   3.4498065778110E+01
(PID.TID 0000.0001) %MON dynstat_salt_sd              =   2.7014941979840E-01
(PID.TID 0000.0001) %MON dynstat_salt_del2            =   3.6631059014107E-07
(PID.TID 0000.0001) %MON advcfl_uvel_max              =   6.4677872548744E-04
(PID.TID 0000.0001) %MON advcfl_vvel_max              =   6.2242151969336E-04
(PID.TID 0000.0001) %MON advcfl_wvel_max              =   1.1877357125810E-03
(PID.TID 0000.0001) %MON advcfl_W_hf_max              =   1.1877357125810E-03
(PID.TID 0000.0001) %MON pe_b_mean                    =  -6.8269541594550E-01
(PID.TID 0000.0001) %MON ke_max                       =   1.3007425342035E-05
(PID.TID 0000.0001) %MON ke_mean                      =   2.6867376288081E-08
(PID.TID 0000.0001) %MON ke_vol                       =   4.6182920140579E+12
(PID.TID 0000.0001) // =======================================================
(PID.TID 0000.0001) // End MONITOR dynamic field statistics
(PID.TID 0000.0001) // =======================================================
(PID.TID 0000.0001) // =======================================================
(PID.TID 0000.0001) // Begin OBCS MONITOR field statistics
(PID.TID 0000.0001) // =======================================================
(PID.TID 0000.0001) %MON obc_N_vVel_max               =  -7.3172809368027E-08
(PID.TID 0000.0001) %MON obc_N_vVel_min               =  -7.3172809368027E-08
(PID.TID 0000.0001) %MON obc_N_vVel_mean              =  -7.3172809368027E-08
(PID.TID 0000.0001) %MON obc_N_vVel_sd                =  -9.4663308626521E-30
(PID.TID 0000.0001) %MON obc_N_vVel_Int               =  -4.8294054182898E+00
(PID.TID 0000.0001) // =======================================================
(PID.TID 0000.0001) // End OBCS MONITOR field statistics
(PID.TID 0000.0001) // =======================================================
 cg2d: Sum(rhs),rhsMax =   3.01150289080756E+00  4.53049445442440E+02
(PID.TID 0000.0001)      cg2d_init_res =   1.31386452684723E-06
(PID.TID 0000.0001)      cg2d_iters(min,last) =      -1      71
(PID.TID 0000.0001)      cg2d_last_res =   7.17123525832365E-12
(PID.TID 0000.0001) // =======================================================
(PID.TID 0000.0001) // Begin MONITOR dynamic field statistics
(PID.TID 0000.0001) // =======================================================
(PID.TID 0000.0001) %MON time_tsnumber                =                   577
(PID.TID 0000.0001) %MON time_secondsf                =   5.7700000000000E+04
(PID.TID 0000.0001) %MON dynstat_eta_max              =   5.7970721036208E+00
(PID.TID 0000.0001) %MON dynstat_eta_min              =  -1.4175633303571E+01
(PID.TID 0000.0001) %MON dynstat_eta_mean             =  -2.5265920641272E+00
(PID.TID 0000.0001) %MON dynstat_eta_sd               =   4.9418241336886E+00
(PID.TID 0000.0001) %MON dynstat_eta_del2             =   1.9058129152864E-01
(PID.TID 0000.0001) %MON dynstat_uvel_max             =   2.4016226611323E-03
(PID.TID 0000.0001) %MON dynstat_uvel_min             =  -6.4879115877341E-03
(PID.TID 0000.0001) %MON dynstat_uvel_mean            =  -1.6809366514784E-09
(PID.TID 0000.0001) %MON dynstat_uvel_sd              =   1.9784892767263E-04
(PID.TID 0000.0001) %MON dynstat_uvel_del2            =   3.4510098030253E-07
(PID.TID 0000.0001) %MON dynstat_vvel_max             =   6.2386984720435E-03
(PID.TID 0000.0001) %MON dynstat_vvel_min             =  -1.7987893070064E-03
(PID.TID 0000.0001) %MON dynstat_vvel_mean            =  -6.1709729692735E-08
(PID.TID 0000.0001) %MON dynstat_vvel_sd              =   1.2461839880433E-04
(PID.TID 0000.0001) %MON dynstat_vvel_del2            =   3.3482682644364E-07
(PID.TID 0000.0001) %MON dynstat_wvel_max             =   2.2661526757361E-04
(PID.TID 0000.0001) %MON dynstat_wvel_min             =  -2.3828547546190E-04
(PID.TID 0000.0001) %MON dynstat_wvel_mean            =   1.5628874911086E-10
(PID.TID 0000.0001) %MON dynstat_wvel_sd              =   1.0171929346115E-05
(PID.TID 0000.0001) %MON dynstat_wvel_del2            =   4.4793788215914E-08
(PID.TID 0000.0001) %MON dynstat_theta_max            =   1.2000000000000E+00
(PID.TID 0000.0001) %MON dynstat_theta_min            =  -1.0000000000000E+00
(PID.TID 0000.0001) %MON dynstat_theta_mean           =   5.6538012963016E-01
(PID.TID 0000.0001) %MON dynstat_theta_sd             =   8.4903920636190E-01
(PID.TID 0000.0001) %MON dynstat_theta_del2           =   9.6340142172921E-07
(PID.TID 0000.0001) %MON dynstat_salt_max             =   3.4700000000000E+01
(PID.TID 0000.0001) %MON dynstat_salt_min             =   3.4000000000000E+01
(PID.TID 0000.0001) %MON dynstat_salt_mean            =   3.4498065672342E+01
(PID.TID 0000.0001) %MON dynstat_salt_sd              =   2.7014939257670E-01
(PID.TID 0000.0001) %MON dynstat_salt_del2            =   3.6676301239557E-07
(PID.TID 0000.0001) %MON advcfl_uvel_max              =   6.4879115877341E-04
(PID.TID 0000.0001) %MON advcfl_vvel_max              =   6.2386984720435E-04
(PID.TID 0000.0001) %MON advcfl_wvel_max              =   1.1914273773095E-03
(PID.TID 0000.0001) %MON advcfl_W_hf_max              =   1.1914273773095E-03
(PID.TID 0000.0001) %MON pe_b_mean                    =  -6.8269474388500E-01
(PID.TID 0000.0001) %MON ke_max                       =   1.3086330993587E-05
(PID.TID 0000.0001) %MON ke_mean                      =   2.6968804534621E-08
(PID.TID 0000.0001) %MON ke_vol                       =   4.6182920285924E+12
(PID.TID 0000.0001) // =======================================================
(PID.TID 0000.0001) // End MONITOR dynamic field statistics
(PID.TID 0000.0001) // =======================================================
(PID.TID 0000.0001) // =======================================================
(PID.TID 0000.0001) // Begin OBCS MONITOR field statistics
(PID.TID 0000.0001) // =======================================================
(PID.TID 0000.0001) %MON obc_N_vVel_max               =  -7.2845654193263E-08
(PID.TID 0000.0001) %MON obc_N_vVel_min               =  -7.2845654193265E-08
(PID.TID 0000.0001) %MON obc_N_vVel_mean              =  -7.2845654193263E-08
(PID.TID 0000.0001) %MON obc_N_vVel_sd                =   9.1873890120452E-15
(PID.TID 0000.0001) %MON obc_N_vVel_Int               =  -4.8078131767554E+00
(PID.TID 0000.0001) // =======================================================
(PID.TID 0000.0001) // End OBCS MONITOR field statistics
(PID.TID 0000.0001) // =======================================================
 cg2d: Sum(rhs),rhsMax =   3.01150003271322E+00  4.53049435938196E+02
(PID.TID 0000.0001)      cg2d_init_res =   1.32270283431737E-06
(PID.TID 0000.0001)      cg2d_iters(min,last) =      -1      71
(PID.TID 0000.0001)      cg2d_last_res =   7.17922680712004E-12
(PID.TID 0000.0001) // =======================================================
(PID.TID 0000.0001) // Begin MONITOR dynamic field statistics
(PID.TID 0000.0001) // =======================================================
(PID.TID 0000.0001) %MON time_tsnumber                =                   578
(PID.TID 0000.0001) %MON time_secondsf                =   5.7800000000000E+04
(PID.TID 0000.0001) %MON dynstat_eta_max              =   5.7970748240321E+00
(PID.TID 0000.0001) %MON dynstat_eta_min              =  -1.4175627908963E+01
(PID.TID 0000.0001) %MON dynstat_eta_mean             =  -2.5265896132381E+00
(PID.TID 0000.0001) %MON dynstat_eta_sd               =   4.9418233677896E+00
(PID.TID 0000.0001) %MON dynstat_eta_del2             =   1.9058129573442E-01
(PID.TID 0000.0001) %MON dynstat_uvel_max             =   2.4056047947969E-03
(PID.TID 0000.0001) %MON dynstat_uvel_min             =  -6.5080853397532E-03
(PID.TID 0000.0001) %MON dynstat_uvel_mean            =  -1.6816835721157E-09
(PID.TID 0000.0001) %MON dynstat_uvel_sd              =   1.9821328262669E-04
(PID.TID 0000.0001) %MON dynstat_uvel_del2            =   3.4571786857712E-07
(PID.TID 0000.0001) %MON dynstat_vvel_max             =   6.2532014464978E-03
(PID.TID 0000.0001) %MON dynstat_vvel_min             =  -1.8052244354223E-03
(PID.TID 0000.0001) %MON dynstat_vvel_mean            =  -6.1148743682375E-08
(PID.TID 0000.0001) %MON dynstat_vvel_sd              =   1.2489648558618E-04
(PID.TID 0000.0001) %MON dynstat_vvel_del2            =   3.3587976913397E-07
(PID.TID 0000.0001) %MON dynstat_wvel_max             =   2.2752592435632E-04
(PID.TID 0000.0001) %MON dynstat_wvel_min             =  -2.3902450280668E-04
(PID.TID 0000.0001) %MON dynstat_wvel_mean            =   1.5711944962300E-10
(PID.TID 0000.0001) %MON dynstat_wvel_sd              =   1.0462356438143E-05
(PID.TID 0000.0001) %MON dynstat_wvel_del2            =   4.5553048418944E-08
(PID.TID 0000.0001) %MON dynstat_theta_max            =   1.2000000000000E+00
(PID.TID 0000.0001) %MON dynstat_theta_min            =  -1.0000000000000E+00
(PID.TID 0000.0001) %MON dynstat_theta_mean           =   5.6537986283785E-01
(PID.TID 0000.0001) %MON dynstat_theta_sd             =   8.4903912606349E-01
(PID.TID 0000.0001) %MON dynstat_theta_del2           =   9.6391637460376E-07
(PID.TID 0000.0001) %MON dynstat_salt_max             =   3.4700000000000E+01
(PID.TID 0000.0001) %MON dynstat_salt_min             =   3.4000000000000E+01
(PID.TID 0000.0001) %MON dynstat_salt_mean            =   3.4498065566464E+01
(PID.TID 0000.0001) %MON dynstat_salt_sd              =   2.7014936527057E-01
(PID.TID 0000.0001) %MON dynstat_salt_del2            =   3.6715670992707E-07
(PID.TID 0000.0001) %MON advcfl_uvel_max              =   6.5080853397532E-04
(PID.TID 0000.0001) %MON advcfl_vvel_max              =   6.2532014464978E-04
(PID.TID 0000.0001) %MON advcfl_wvel_max              =   1.1951225140334E-03
(PID.TID 0000.0001) %MON advcfl_W_hf_max              =   1.1951225140334E-03
(PID.TID 0000.0001) %MON pe_b_mean                    =  -6.8269407115159E-01
(PID.TID 0000.0001) %MON ke_max                       =   1.3165684480033E-05
(PID.TID 0000.0001) %MON ke_mean                      =   2.7074294033245E-08
(PID.TID 0000.0001) %MON ke_vol                       =   4.6182920431391E+12
(PID.TID 0000.0001) // =======================================================
(PID.TID 0000.0001) // End MONITOR dynamic field statistics
(PID.TID 0000.0001) // =======================================================
(PID.TID 0000.0001) // =======================================================
(PID.TID 0000.0001) // Begin OBCS MONITOR field statistics
(PID.TID 0000.0001) // =======================================================
(PID.TID 0000.0001) %MON obc_N_vVel_max               =  -7.2410560680828E-08
(PID.TID 0000.0001) %MON obc_N_vVel_min               =  -7.2410560680828E-08
(PID.TID 0000.0001) %MON obc_N_vVel_mean              =  -7.2410560680828E-08
(PID.TID 0000.0001) %MON obc_N_vVel_sd                =   1.0805156823143E-14
(PID.TID 0000.0001) %MON obc_N_vVel_Int               =  -4.7790970049347E+00
(PID.TID 0000.0001) // =======================================================
(PID.TID 0000.0001) // End OBCS MONITOR field statistics
(PID.TID 0000.0001) // =======================================================
 cg2d: Sum(rhs),rhsMax =   3.01149717213472E+00  4.53049426476415E+02
(PID.TID 0000.0001)      cg2d_init_res =   1.33467856495348E-06
(PID.TID 0000.0001)      cg2d_iters(min,last) =      -1      71
(PID.TID 0000.0001)      cg2d_last_res =   7.19219377864521E-12
(PID.TID 0000.0001) // =======================================================
(PID.TID 0000.0001) // Begin MONITOR dynamic field statistics
(PID.TID 0000.0001) // =======================================================
(PID.TID 0000.0001) %MON time_tsnumber                =                   579
(PID.TID 0000.0001) %MON time_secondsf                =   5.7900000000000E+04
(PID.TID 0000.0001) %MON dynstat_eta_max              =   5.7970775458953E+00
(PID.TID 0000.0001) %MON dynstat_eta_min              =  -1.4175622524955E+01
(PID.TID 0000.0001) %MON dynstat_eta_mean             =  -2.5265871605018E+00
(PID.TID 0000.0001) %MON dynstat_eta_sd               =   4.9418226014884E+00
(PID.TID 0000.0001) %MON dynstat_eta_del2             =   1.9058129994975E-01
(PID.TID 0000.0001) %MON dynstat_uvel_max             =   2.4095959187953E-03
(PID.TID 0000.0001) %MON dynstat_uvel_min             =  -6.5283086462466E-03
(PID.TID 0000.0001) %MON dynstat_uvel_mean            =  -1.6817995395007E-09
(PID.TID 0000.0001) %MON dynstat_uvel_sd              =   1.9857867731445E-04
(PID.TID 0000.0001) %MON dynstat_uvel_del2            =   3.4633745402196E-07
(PID.TID 0000.0001) %MON dynstat_vvel_max             =   6.2677241906819E-03
(PID.TID 0000.0001) %MON dynstat_vvel_min             =  -1.8116690452912E-03
(PID.TID 0000.0001) %MON dynstat_vvel_mean            =  -6.0496406591243E-08
(PID.TID 0000.0001) %MON dynstat_vvel_sd              =   1.2519636321574E-04
(PID.TID 0000.0001) %MON dynstat_vvel_del2            =   3.3703871924330E-07
(PID.TID 0000.0001) %MON dynstat_wvel_max             =   2.2843852284037E-04
(PID.TID 0000.0001) %MON dynstat_wvel_min             =  -2.3976421303481E-04
(PID.TID 0000.0001) %MON dynstat_wvel_mean            =   1.5784732974268E-10
(PID.TID 0000.0001) %MON dynstat_wvel_sd              =   1.0794763385768E-05
(PID.TID 0000.0001) %MON dynstat_wvel_del2            =   4.6575614417070E-08
(PID.TID 0000.0001) %MON dynstat_theta_max            =   1.2000000000000E+00
(PID.TID 0000.0001) %MON dynstat_theta_min            =  -1.0000000000000E+00
(PID.TID 0000.0001) %MON dynstat_theta_mean           =   5.6537959578475E-01
(PID.TID 0000.0001) %MON dynstat_theta_sd             =   8.4903904552699E-01
(PID.TID 0000.0001) %MON dynstat_theta_del2           =   9.6425192195547E-07
(PID.TID 0000.0001) %MON dynstat_salt_max             =   3.4700000000000E+01
(PID.TID 0000.0001) %MON dynstat_salt_min             =   3.4000000000000E+01
(PID.TID 0000.0001) %MON dynstat_salt_mean            =   3.4498065460481E+01
(PID.TID 0000.0001) %MON dynstat_salt_sd              =   2.7014933787421E-01
(PID.TID 0000.0001) %MON dynstat_salt_del2            =   3.6750317954305E-07
(PID.TID 0000.0001) %MON advcfl_uvel_max              =   6.5283086462467E-04
(PID.TID 0000.0001) %MON advcfl_vvel_max              =   6.2677241906819E-04
(PID.TID 0000.0001) %MON advcfl_wvel_max              =   1.1988210651741E-03
(PID.TID 0000.0001) %MON advcfl_W_hf_max              =   1.1988210651741E-03
(PID.TID 0000.0001) %MON pe_b_mean                    =  -6.8269339776244E-01
(PID.TID 0000.0001) %MON ke_max                       =   1.3245488238329E-05
(PID.TID 0000.0001) %MON ke_mean                      =   2.7182921509266E-08
(PID.TID 0000.0001) %MON ke_vol                       =   4.6182920576974E+12
(PID.TID 0000.0001) // =======================================================
(PID.TID 0000.0001) // End MONITOR dynamic field statistics
(PID.TID 0000.0001) // =======================================================
(PID.TID 0000.0001) // =======================================================
(PID.TID 0000.0001) // Begin OBCS MONITOR field statistics
(PID.TID 0000.0001) // =======================================================
(PID.TID 0000.0001) %MON obc_N_vVel_max               =  -7.1882640488981E-08
(PID.TID 0000.0001) %MON obc_N_vVel_min               =  -7.1882640488983E-08
(PID.TID 0000.0001) %MON obc_N_vVel_mean              =  -7.1882640488983E-08
(PID.TID 0000.0001) %MON obc_N_vVel_sd                =  -4.1809627976714E-28
(PID.TID 0000.0001) %MON obc_N_vVel_Int               =  -4.7442542722729E+00
(PID.TID 0000.0001) // =======================================================
(PID.TID 0000.0001) // End OBCS MONITOR field statistics
(PID.TID 0000.0001) // =======================================================
 cg2d: Sum(rhs),rhsMax =   3.01149430917144E+00  4.53049417056683E+02
(PID.TID 0000.0001)      cg2d_init_res =   1.34907704008962E-06
(PID.TID 0000.0001)      cg2d_iters(min,last) =      -1      71
(PID.TID 0000.0001)      cg2d_last_res =   7.21002018475595E-12
(PID.TID 0000.0001) // =======================================================
(PID.TID 0000.0001) // Begin MONITOR dynamic field statistics
(PID.TID 0000.0001) // =======================================================
(PID.TID 0000.0001) %MON time_tsnumber                =                   580
(PID.TID 0000.0001) %MON time_secondsf                =   5.8000000000000E+04
(PID.TID 0000.0001) %MON dynstat_eta_max              =   5.7970802691764E+00
(PID.TID 0000.0001) %MON dynstat_eta_min              =  -1.4175617151739E+01
(PID.TID 0000.0001) %MON dynstat_eta_mean             =  -2.5265847059993E+00
(PID.TID 0000.0001) %MON dynstat_eta_sd               =   4.9418218347923E+00
(PID.TID 0000.0001) %MON dynstat_eta_del2             =   1.9058130417443E-01
(PID.TID 0000.0001) %MON dynstat_uvel_max             =   2.4135960255407E-03
(PID.TID 0000.0001) %MON dynstat_uvel_min             =  -6.5485816385404E-03
(PID.TID 0000.0001) %MON dynstat_uvel_mean            =  -1.6810973876563E-09
(PID.TID 0000.0001) %MON dynstat_uvel_sd              =   1.9894514536343E-04
(PID.TID 0000.0001) %MON dynstat_uvel_del2            =   3.4695988767451E-07
(PID.TID 0000.0001) %MON dynstat_vvel_max             =   6.2822667835074E-03
(PID.TID 0000.0001) %MON dynstat_vvel_min             =  -1.8181231387873E-03
(PID.TID 0000.0001) %MON dynstat_vvel_mean            =  -5.9772991213857E-08
(PID.TID 0000.0001) %MON dynstat_vvel_sd              =   1.2550929835852E-04
(PID.TID 0000.0001) %MON dynstat_vvel_del2            =   3.3826642704693E-07
(PID.TID 0000.0001) %MON dynstat_wvel_max             =   2.2935306698075E-04
(PID.TID 0000.0001) %MON dynstat_wvel_min             =  -2.4050460549350E-04
(PID.TID 0000.0001) %MON dynstat_wvel_mean            =   1.5844895246476E-10
(PID.TID 0000.0001) %MON dynstat_wvel_sd              =   1.1146973157174E-05
(PID.TID 0000.0001) %MON dynstat_wvel_del2            =   4.7785751546370E-08
(PID.TID 0000.0001) %MON dynstat_theta_max            =   1.2000000000000E+00
(PID.TID 0000.0001) %MON dynstat_theta_min            =  -1.0000000000000E+00
(PID.TID 0000.0001) %MON dynstat_theta_mean           =   5.6537932848608E-01
(PID.TID 0000.0001) %MON dynstat_theta_sd             =   8.4903896474917E-01
(PID.TID 0000.0001) %MON dynstat_theta_del2           =   9.6446079893042E-07
(PID.TID 0000.0001) %MON dynstat_salt_max             =   3.4700000000000E+01
(PID.TID 0000.0001) %MON dynstat_salt_min             =   3.4000000000000E+01
(PID.TID 0000.0001) %MON dynstat_salt_mean            =   3.4498065354398E+01
(PID.TID 0000.0001) %MON dynstat_salt_sd              =   2.7014931038669E-01
(PID.TID 0000.0001) %MON dynstat_salt_del2            =   3.6781663170148E-07
(PID.TID 0000.0001) %MON advcfl_uvel_max              =   6.5485816385404E-04
(PID.TID 0000.0001) %MON advcfl_vvel_max              =   6.2822667835074E-04
(PID.TID 0000.0001) %MON advcfl_wvel_max              =   1.2025230274675E-03
(PID.TID 0000.0001) %MON advcfl_W_hf_max              =   1.2025230274675E-03
(PID.TID 0000.0001) %MON pe_b_mean                    =  -6.8269272373010E-01
(PID.TID 0000.0001) %MON ke_max                       =   1.3325744687831E-05
(PID.TID 0000.0001) %MON ke_mean                      =   2.7293618133438E-08
(PID.TID 0000.0001) %MON ke_vol                       =   4.6182920722666E+12
(PID.TID 0000.0001) // =======================================================
(PID.TID 0000.0001) // End MONITOR dynamic field statistics
(PID.TID 0000.0001) // =======================================================
(PID.TID 0000.0001) // =======================================================
(PID.TID 0000.0001) // Begin OBCS MONITOR field statistics
(PID.TID 0000.0001) // =======================================================
(PID.TID 0000.0001) %MON obc_N_vVel_max               =  -7.1278018961636E-08
(PID.TID 0000.0001) %MON obc_N_vVel_min               =  -7.1278018961637E-08
(PID.TID 0000.0001) %MON obc_N_vVel_mean              =  -7.1278018961637E-08
(PID.TID 0000.0001) %MON obc_N_vVel_sd                =  -1.0097419586829E-28
(PID.TID 0000.0001) %MON obc_N_vVel_Int               =  -4.7043492514680E+00
(PID.TID 0000.0001) // =======================================================
(PID.TID 0000.0001) // End OBCS MONITOR field statistics
(PID.TID 0000.0001) // =======================================================
 cg2d: Sum(rhs),rhsMax =   3.01149144390262E+00  4.53049407677694E+02
(PID.TID 0000.0001)      cg2d_init_res =   1.36506872725325E-06
(PID.TID 0000.0001)      cg2d_iters(min,last) =      -1      71
(PID.TID 0000.0001)      cg2d_last_res =   7.23234593344482E-12
(PID.TID 0000.0001) // =======================================================
(PID.TID 0000.0001) // Begin MONITOR dynamic field statistics
(PID.TID 0000.0001) // =======================================================
(PID.TID 0000.0001) %MON time_tsnumber                =                   581
(PID.TID 0000.0001) %MON time_secondsf                =   5.8100000000000E+04
(PID.TID 0000.0001) %MON dynstat_eta_max              =   5.7970829938941E+00
(PID.TID 0000.0001) %MON dynstat_eta_min              =  -1.4175611789458E+01
(PID.TID 0000.0001) %MON dynstat_eta_mean             =  -2.5265822497899E+00
(PID.TID 0000.0001) %MON dynstat_eta_sd               =   4.9418210677005E+00
(PID.TID 0000.0001) %MON dynstat_eta_del2             =   1.9058130840845E-01
(PID.TID 0000.0001) %MON dynstat_uvel_max             =   2.4176051074871E-03
(PID.TID 0000.0001) %MON dynstat_uvel_min             =  -6.5689044464508E-03
(PID.TID 0000.0001) %MON dynstat_uvel_mean            =  -1.6794144111362E-09
(PID.TID 0000.0001) %MON dynstat_uvel_sd              =   1.9931271959593E-04
(PID.TID 0000.0001) %MON dynstat_uvel_del2            =   3.4758531772181E-07
(PID.TID 0000.0001) %MON dynstat_vvel_max             =   6.2968293030592E-03
(PID.TID 0000.0001) %MON dynstat_vvel_min             =  -1.8245867253697E-03
(PID.TID 0000.0001) %MON dynstat_vvel_mean            =  -5.9001056115066E-08
(PID.TID 0000.0001) %MON dynstat_vvel_sd              =   1.2582595766438E-04
(PID.TID 0000.0001) %MON dynstat_vvel_del2            =   3.3952176169182E-07
(PID.TID 0000.0001) %MON dynstat_wvel_max             =   2.3026956108793E-04
(PID.TID 0000.0001) %MON dynstat_wvel_min             =  -2.4124568876377E-04
(PID.TID 0000.0001) %MON dynstat_wvel_mean            =   1.5890486368401E-10
(PID.TID 0000.0001) %MON dynstat_wvel_sd              =   1.1497627257903E-05
(PID.TID 0000.0001) %MON dynstat_wvel_del2            =   4.9099643675069E-08
(PID.TID 0000.0001) %MON dynstat_theta_max            =   1.2000000000000E+00
(PID.TID 0000.0001) %MON dynstat_theta_min            =  -1.0000000000000E+00
(PID.TID 0000.0001) %MON dynstat_theta_mean           =   5.6537906095661E-01
(PID.TID 0000.0001) %MON dynstat_theta_sd             =   8.4903888373171E-01
(PID.TID 0000.0001) %MON dynstat_theta_del2           =   9.6460221066251E-07
(PID.TID 0000.0001) %MON dynstat_salt_max             =   3.4700000000000E+01
(PID.TID 0000.0001) %MON dynstat_salt_min             =   3.4000000000000E+01
(PID.TID 0000.0001) %MON dynstat_salt_mean            =   3.4498065248219E+01
(PID.TID 0000.0001) %MON dynstat_salt_sd              =   2.7014928280854E-01
(PID.TID 0000.0001) %MON dynstat_salt_del2            =   3.6811278581010E-07
(PID.TID 0000.0001) %MON advcfl_uvel_max              =   6.5689044464508E-04
(PID.TID 0000.0001) %MON advcfl_vvel_max              =   6.2968293030592E-04
(PID.TID 0000.0001) %MON advcfl_wvel_max              =   1.2062284438188E-03
(PID.TID 0000.0001) %MON advcfl_W_hf_max              =   1.2062284438188E-03
(PID.TID 0000.0001) %MON pe_b_mean                    =  -6.8269204906200E-01
(PID.TID 0000.0001) %MON ke_max                       =   1.3406456252317E-05
(PID.TID 0000.0001) %MON ke_mean                      =   2.7405229360025E-08
(PID.TID 0000.0001) %MON ke_vol                       =   4.6182920868464E+12
(PID.TID 0000.0001) // =======================================================
(PID.TID 0000.0001) // End MONITOR dynamic field statistics
(PID.TID 0000.0001) // =======================================================
(PID.TID 0000.0001) // =======================================================
(PID.TID 0000.0001) // Begin OBCS MONITOR field statistics
(PID.TID 0000.0001) // =======================================================
(PID.TID 0000.0001) %MON obc_N_vVel_max               =  -7.0615588917187E-08
(PID.TID 0000.0001) %MON obc_N_vVel_min               =  -7.0615588917188E-08
(PID.TID 0000.0001) %MON obc_N_vVel_mean              =  -7.0615588917188E-08
(PID.TID 0000.0001) %MON obc_N_vVel_sd                =  -3.0450030941531E-28
(PID.TID 0000.0001) %MON obc_N_vVel_Int               =  -4.6606288685344E+00
(PID.TID 0000.0001) // =======================================================
(PID.TID 0000.0001) // End OBCS MONITOR field statistics
(PID.TID 0000.0001) // =======================================================
 cg2d: Sum(rhs),rhsMax =   3.01148857638556E+00  4.53049398337381E+02
(PID.TID 0000.0001)      cg2d_init_res =   1.38168884794593E-06
(PID.TID 0000.0001)      cg2d_iters(min,last) =      -1      71
(PID.TID 0000.0001)      cg2d_last_res =   7.25700552780996E-12
(PID.TID 0000.0001) // =======================================================
(PID.TID 0000.0001) // Begin MONITOR dynamic field statistics
(PID.TID 0000.0001) // =======================================================
(PID.TID 0000.0001) %MON time_tsnumber                =                   582
(PID.TID 0000.0001) %MON time_secondsf                =   5.8200000000000E+04
(PID.TID 0000.0001) %MON dynstat_eta_max              =   5.7970857200985E+00
(PID.TID 0000.0001) %MON dynstat_eta_min              =  -1.4175606438195E+01
(PID.TID 0000.0001) %MON dynstat_eta_mean             =  -2.5265797919100E+00
(PID.TID 0000.0001) %MON dynstat_eta_sd               =   4.9418203002018E+00
(PID.TID 0000.0001) %MON dynstat_eta_del2             =   1.9058131265153E-01
(PID.TID 0000.0001) %MON dynstat_uvel_max             =   2.4216231563603E-03
(PID.TID 0000.0001) %MON dynstat_uvel_min             =  -6.5892771967251E-03
(PID.TID 0000.0001) %MON dynstat_uvel_mean            =  -1.6766522300678E-09
(PID.TID 0000.0001) %MON dynstat_uvel_sd              =   1.9968143075808E-04
(PID.TID 0000.0001) %MON dynstat_uvel_del2            =   3.4821387778505E-07
(PID.TID 0000.0001) %MON dynstat_vvel_max             =   6.3114118266132E-03
(PID.TID 0000.0001) %MON dynstat_vvel_min             =  -1.8310598240117E-03
(PID.TID 0000.0001) %MON dynstat_vvel_mean            =  -5.8204708818302E-08
(PID.TID 0000.0001) %MON dynstat_vvel_sd              =   1.2613693754312E-04
(PID.TID 0000.0001) %MON dynstat_vvel_del2            =   3.4076208453509E-07
(PID.TID 0000.0001) %MON dynstat_wvel_max             =   2.3118800941872E-04
(PID.TID 0000.0001) %MON dynstat_wvel_min             =  -2.4198749303667E-04
(PID.TID 0000.0001) %MON dynstat_wvel_mean            =   1.5920313560282E-10
(PID.TID 0000.0001) %MON dynstat_wvel_sd              =   1.1827302318231E-05
(PID.TID 0000.0001) %MON dynstat_wvel_del2            =   5.0432448640713E-08
(PID.TID 0000.0001) %MON dynstat_theta_max            =   1.2000000000000E+00
(PID.TID 0000.0001) %MON dynstat_theta_min            =  -1.0000000000000E+00
(PID.TID 0000.0001) %MON dynstat_theta_mean           =   5.6537879321059E-01
(PID.TID 0000.0001) %MON dynstat_theta_sd             =   8.4903880247415E-01
(PID.TID 0000.0001) %MON dynstat_theta_del2           =   9.6473971873942E-07
(PID.TID 0000.0001) %MON dynstat_salt_max             =   3.4700000000000E+01
(PID.TID 0000.0001) %MON dynstat_salt_min             =   3.4000000000000E+01
(PID.TID 0000.0001) %MON dynstat_salt_mean            =   3.4498065141948E+01
(PID.TID 0000.0001) %MON dynstat_salt_sd              =   2.7014925513960E-01
(PID.TID 0000.0001) %MON dynstat_salt_del2            =   3.6840849720851E-07
(PID.TID 0000.0001) %MON advcfl_uvel_max              =   6.5892771967251E-04
(PID.TID 0000.0001) %MON advcfl_vvel_max              =   6.3114118266132E-04
(PID.TID 0000.0001) %MON advcfl_wvel_max              =   1.2099374651834E-03
(PID.TID 0000.0001) %MON advcfl_W_hf_max              =   1.2099374651834E-03
(PID.TID 0000.0001) %MON pe_b_mean                    =  -6.8269137376065E-01
(PID.TID 0000.0001) %MON ke_max                       =   1.3487625360108E-05
(PID.TID 0000.0001) %MON ke_mean                      =   2.7516579804482E-08
(PID.TID 0000.0001) %MON ke_vol                       =   4.6182921014362E+12
(PID.TID 0000.0001) // =======================================================
(PID.TID 0000.0001) // End MONITOR dynamic field statistics
(PID.TID 0000.0001) // =======================================================
(PID.TID 0000.0001) // =======================================================
(PID.TID 0000.0001) // Begin OBCS MONITOR field statistics
(PID.TID 0000.0001) // =======================================================
(PID.TID 0000.0001) %MON obc_N_vVel_max               =  -6.9916450600884E-08
(PID.TID 0000.0001) %MON obc_N_vVel_min               =  -6.9916450600885E-08
(PID.TID 0000.0001) %MON obc_N_vVel_mean              =  -6.9916450600884E-08
(PID.TID 0000.0001) %MON obc_N_vVel_sd                =   1.3644455783657E-14
(PID.TID 0000.0001) %MON obc_N_vVel_Int               =  -4.6144857396583E+00
(PID.TID 0000.0001) // =======================================================
(PID.TID 0000.0001) // End OBCS MONITOR field statistics
(PID.TID 0000.0001) // =======================================================
 cg2d: Sum(rhs),rhsMax =   3.01148570664854E+00  4.53049389032969E+02
(PID.TID 0000.0001)      cg2d_init_res =   1.39799217384140E-06
(PID.TID 0000.0001)      cg2d_iters(min,last) =      -1      71
(PID.TID 0000.0001)      cg2d_last_res =   7.28323557273735E-12
(PID.TID 0000.0001) // =======================================================
(PID.TID 0000.0001) // Begin MONITOR dynamic field statistics
(PID.TID 0000.0001) // =======================================================
(PID.TID 0000.0001) %MON time_tsnumber                =                   583
(PID.TID 0000.0001) %MON time_secondsf                =   5.8300000000000E+04
(PID.TID 0000.0001) %MON dynstat_eta_max              =   5.7970884478835E+00
(PID.TID 0000.0001) %MON dynstat_eta_min              =  -1.4175601097984E+01
(PID.TID 0000.0001) %MON dynstat_eta_mean             =  -2.5265773323679E+00
(PID.TID 0000.0001) %MON dynstat_eta_sd               =   4.9418195322773E+00
(PID.TID 0000.0001) %MON dynstat_eta_del2             =   1.9058131690378E-01
(PID.TID 0000.0001) %MON dynstat_uvel_max             =   2.4256501631541E-03
(PID.TID 0000.0001) %MON dynstat_uvel_min             =  -6.6097000190588E-03
(PID.TID 0000.0001) %MON dynstat_uvel_mean            =  -1.6727571841649E-09
(PID.TID 0000.0001) %MON dynstat_uvel_sd              =   2.0005130626711E-04
(PID.TID 0000.0001) %MON dynstat_uvel_del2            =   3.4884568045561E-07
(PID.TID 0000.0001) %MON dynstat_vvel_max             =   6.3260144312218E-03
(PID.TID 0000.0001) %MON dynstat_vvel_min             =  -1.8375424405113E-03
(PID.TID 0000.0001) %MON dynstat_vvel_mean            =  -5.7408800257439E-08
(PID.TID 0000.0001) %MON dynstat_vvel_sd              =   1.2643329020981E-04
(PID.TID 0000.0001) %MON dynstat_vvel_del2            =   3.4194569372976E-07
(PID.TID 0000.0001) %MON dynstat_wvel_max             =   2.3210841624178E-04
(PID.TID 0000.0001) %MON dynstat_wvel_min             =  -2.4273002278234E-04
(PID.TID 0000.0001) %MON dynstat_wvel_mean            =   1.5933778349024E-10
(PID.TID 0000.0001) %MON dynstat_wvel_sd              =   1.2119149852154E-05
(PID.TID 0000.0001) %MON dynstat_wvel_del2            =   5.1703671436810E-08
(PID.TID 0000.0001) %MON dynstat_theta_max            =   1.2000000000000E+00
(PID.TID 0000.0001) %MON dynstat_theta_min            =  -1.0000000000000E+00
(PID.TID 0000.0001) %MON dynstat_theta_mean           =   5.6537852526103E-01
(PID.TID 0000.0001) %MON dynstat_theta_sd             =   8.4903872097138E-01
(PID.TID 0000.0001) %MON dynstat_theta_del2           =   9.6493698682213E-07
(PID.TID 0000.0001) %MON dynstat_salt_max             =   3.4700000000000E+01
(PID.TID 0000.0001) %MON dynstat_salt_min             =   3.4000000000000E+01
(PID.TID 0000.0001) %MON dynstat_salt_mean            =   3.4498065035591E+01
(PID.TID 0000.0001) %MON dynstat_salt_sd              =   2.7014922737799E-01
(PID.TID 0000.0001) %MON dynstat_salt_del2            =   3.6872063935234E-07
(PID.TID 0000.0001) %MON advcfl_uvel_max              =   6.6097000190588E-04
(PID.TID 0000.0001) %MON advcfl_vvel_max              =   6.3260144312218E-04
(PID.TID 0000.0001) %MON advcfl_wvel_max              =   1.2136501139117E-03
(PID.TID 0000.0001) %MON advcfl_W_hf_max              =   1.2136501139117E-03
(PID.TID 0000.0001) %MON pe_b_mean                    =  -6.8269069782234E-01
(PID.TID 0000.0001) %MON ke_max                       =   1.3569254455320E-05
(PID.TID 0000.0001) %MON ke_mean                      =   2.7626539485317E-08
(PID.TID 0000.0001) %MON ke_vol                       =   4.6182921160361E+12
(PID.TID 0000.0001) // =======================================================
(PID.TID 0000.0001) // End MONITOR dynamic field statistics
(PID.TID 0000.0001) // =======================================================
(PID.TID 0000.0001) // =======================================================
(PID.TID 0000.0001) // Begin OBCS MONITOR field statistics
(PID.TID 0000.0001) // =======================================================
(PID.TID 0000.0001) %MON obc_N_vVel_max               =  -6.9202904874533E-08
(PID.TID 0000.0001) %MON obc_N_vVel_min               =  -6.9202904874534E-08
(PID.TID 0000.0001) %MON obc_N_vVel_mean              =  -6.9202904874533E-08
(PID.TID 0000.0001) %MON obc_N_vVel_sd                =   9.1011205380550E-15
(PID.TID 0000.0001) %MON obc_N_vVel_Int               =  -4.5673917217191E+00
(PID.TID 0000.0001) // =======================================================
(PID.TID 0000.0001) // End OBCS MONITOR field statistics
(PID.TID 0000.0001) // =======================================================
 cg2d: Sum(rhs),rhsMax =   3.01148283469774E+00  4.53049379761082E+02
(PID.TID 0000.0001)      cg2d_init_res =   1.41306181832155E-06
(PID.TID 0000.0001)      cg2d_iters(min,last) =      -1      71
(PID.TID 0000.0001)      cg2d_last_res =   7.31043580297143E-12
(PID.TID 0000.0001) // =======================================================
(PID.TID 0000.0001) // Begin MONITOR dynamic field statistics
(PID.TID 0000.0001) // =======================================================
(PID.TID 0000.0001) %MON time_tsnumber                =                   584
(PID.TID 0000.0001) %MON time_secondsf                =   5.8400000000000E+04
(PID.TID 0000.0001) %MON dynstat_eta_max              =   5.7970911773633E+00
(PID.TID 0000.0001) %MON dynstat_eta_min              =  -1.4175595768792E+01
(PID.TID 0000.0001) %MON dynstat_eta_mean             =  -2.5265748711499E+00
(PID.TID 0000.0001) %MON dynstat_eta_sd               =   4.9418187638996E+00
(PID.TID 0000.0001) %MON dynstat_eta_del2             =   1.9058132116507E-01
(PID.TID 0000.0001) %MON dynstat_uvel_max             =   2.4296861181163E-03
(PID.TID 0000.0001) %MON dynstat_uvel_min             =  -6.6301730441722E-03
(PID.TID 0000.0001) %MON dynstat_uvel_mean            =  -1.6677162898620E-09
(PID.TID 0000.0001) %MON dynstat_uvel_sd              =   2.0042236914730E-04
(PID.TID 0000.0001) %MON dynstat_uvel_del2            =   3.4948081036333E-07
(PID.TID 0000.0001) %MON dynstat_vvel_max             =   6.3406371934698E-03
(PID.TID 0000.0001) %MON dynstat_vvel_min             =  -1.8440345817137E-03
(PID.TID 0000.0001) %MON dynstat_vvel_mean            =  -5.6638095510539E-08
(PID.TID 0000.0001) %MON dynstat_vvel_sd              =   1.2670701680048E-04
(PID.TID 0000.0001) %MON dynstat_vvel_del2            =   3.4303420084603E-07
(PID.TID 0000.0001) %MON dynstat_wvel_max             =   2.3303078586323E-04
(PID.TID 0000.0001) %MON dynstat_wvel_min             =  -2.4347327889394E-04
(PID.TID 0000.0001) %MON dynstat_wvel_mean            =   1.5930828708785E-10
(PID.TID 0000.0001) %MON dynstat_wvel_sd              =   1.2359215691623E-05
(PID.TID 0000.0001) %MON dynstat_wvel_del2            =   5.2840839075028E-08
(PID.TID 0000.0001) %MON dynstat_theta_max            =   1.2000000000000E+00
(PID.TID 0000.0001) %MON dynstat_theta_min            =  -1.0000000000000E+00
(PID.TID 0000.0001) %MON dynstat_theta_mean           =   5.6537825712024E-01
(PID.TID 0000.0001) %MON dynstat_theta_sd             =   8.4903863922584E-01
(PID.TID 0000.0001) %MON dynstat_theta_del2           =   9.6525419463763E-07
(PID.TID 0000.0001) %MON dynstat_salt_max             =   3.4700000000000E+01
(PID.TID 0000.0001) %MON dynstat_salt_min             =   3.4000000000000E+01
(PID.TID 0000.0001) %MON dynstat_salt_mean            =   3.4498064929150E+01
(PID.TID 0000.0001) %MON dynstat_salt_sd              =   2.7014919952465E-01
(PID.TID 0000.0001) %MON dynstat_salt_del2            =   3.6906512967381E-07
(PID.TID 0000.0001) %MON advcfl_uvel_max              =   6.6301730441722E-04
(PID.TID 0000.0001) %MON advcfl_vvel_max              =   6.3406371934698E-04
(PID.TID 0000.0001) %MON advcfl_wvel_max              =   1.2173663944697E-03
(PID.TID 0000.0001) %MON advcfl_W_hf_max              =   1.2173663944697E-03
(PID.TID 0000.0001) %MON pe_b_mean                    =  -6.8269002123902E-01
(PID.TID 0000.0001) %MON ke_max                       =   1.3651345993655E-05
(PID.TID 0000.0001) %MON ke_mean                      =   2.7734087685064E-08
(PID.TID 0000.0001) %MON ke_vol                       =   4.6182921306457E+12
(PID.TID 0000.0001) // =======================================================
(PID.TID 0000.0001) // End MONITOR dynamic field statistics
(PID.TID 0000.0001) // =======================================================
(PID.TID 0000.0001) // =======================================================
(PID.TID 0000.0001) // Begin OBCS MONITOR field statistics
(PID.TID 0000.0001) // =======================================================
(PID.TID 0000.0001) %MON obc_N_vVel_max               =  -6.8497586037454E-08
(PID.TID 0000.0001) %MON obc_N_vVel_min               =  -6.8497586037454E-08
(PID.TID 0000.0001) %MON obc_N_vVel_mean              =  -6.8497586037454E-08
(PID.TID 0000.0001) %MON obc_N_vVel_sd                =  -1.1990685759359E-28
(PID.TID 0000.0001) %MON obc_N_vVel_Int               =  -4.5208406784720E+00
(PID.TID 0000.0001) // =======================================================
(PID.TID 0000.0001) // End OBCS MONITOR field statistics
(PID.TID 0000.0001) // =======================================================
 cg2d: Sum(rhs),rhsMax =   3.01147996051290E+00  4.53049370517841E+02
(PID.TID 0000.0001)      cg2d_init_res =   1.42605288647575E-06
(PID.TID 0000.0001)      cg2d_iters(min,last) =      -1      71
(PID.TID 0000.0001)      cg2d_last_res =   7.33868485818740E-12
(PID.TID 0000.0001) // =======================================================
(PID.TID 0000.0001) // Begin MONITOR dynamic field statistics
(PID.TID 0000.0001) // =======================================================
(PID.TID 0000.0001) %MON time_tsnumber                =                   585
(PID.TID 0000.0001) %MON time_secondsf                =   5.8500000000000E+04
(PID.TID 0000.0001) %MON dynstat_eta_max              =   5.7970939086988E+00
(PID.TID 0000.0001) %MON dynstat_eta_min              =  -1.4175590450527E+01
(PID.TID 0000.0001) %MON dynstat_eta_mean             =  -2.5265724082175E+00
(PID.TID 0000.0001) %MON dynstat_eta_sd               =   4.9418179950344E+00
(PID.TID 0000.0001) %MON dynstat_eta_del2             =   1.9058132543525E-01
(PID.TID 0000.0001) %MON dynstat_uvel_max             =   2.4337310110507E-03
(PID.TID 0000.0001) %MON dynstat_uvel_min             =  -6.6506964029998E-03
(PID.TID 0000.0001) %MON dynstat_uvel_mean            =  -1.6615580723097E-09
(PID.TID 0000.0001) %MON dynstat_uvel_sd              =   2.0079463714778E-04
(PID.TID 0000.0001) %MON dynstat_uvel_del2            =   3.5011931861393E-07
(PID.TID 0000.0001) %MON dynstat_vvel_max             =   6.3552801900297E-03
(PID.TID 0000.0001) %MON dynstat_vvel_min             =  -1.8505362538672E-03
(PID.TID 0000.0001) %MON dynstat_vvel_mean            =  -5.5916438901524E-08
(PID.TID 0000.0001) %MON dynstat_vvel_sd              =   1.2695150164012E-04
(PID.TID 0000.0001) %MON dynstat_vvel_del2            =   3.4399471159498E-07
(PID.TID 0000.0001) %MON dynstat_wvel_max             =   2.3395512260309E-04
(PID.TID 0000.0001) %MON dynstat_wvel_min             =  -2.4421726155206E-04
(PID.TID 0000.0001) %MON dynstat_wvel_mean            =   1.5911923167319E-10
(PID.TID 0000.0001) %MON dynstat_wvel_sd              =   1.2536574166801E-05
(PID.TID 0000.0001) %MON dynstat_wvel_del2            =   5.3781821328605E-08
(PID.TID 0000.0001) %MON dynstat_theta_max            =   1.2000000000000E+00
(PID.TID 0000.0001) %MON dynstat_theta_min            =  -1.0000000000000E+00
(PID.TID 0000.0001) %MON dynstat_theta_mean           =   5.6537798879921E-01
(PID.TID 0000.0001) %MON dynstat_theta_sd             =   8.4903855724499E-01
(PID.TID 0000.0001) %MON dynstat_theta_del2           =   9.6574456259322E-07
(PID.TID 0000.0001) %MON dynstat_salt_max             =   3.4700000000000E+01
(PID.TID 0000.0001) %MON dynstat_salt_min             =   3.4000000000000E+01
(PID.TID 0000.0001) %MON dynstat_salt_mean            =   3.4498064822629E+01
(PID.TID 0000.0001) %MON dynstat_salt_sd              =   2.7014917158179E-01
(PID.TID 0000.0001) %MON dynstat_salt_del2            =   3.6945599570861E-07
(PID.TID 0000.0001) %MON advcfl_uvel_max              =   6.6506964029998E-04
(PID.TID 0000.0001) %MON advcfl_vvel_max              =   6.3552801900297E-04
(PID.TID 0000.0001) %MON advcfl_wvel_max              =   1.2210863077603E-03
(PID.TID 0000.0001) %MON advcfl_W_hf_max              =   1.2210863077603E-03
(PID.TID 0000.0001) %MON pe_b_mean                    =  -6.8268934399766E-01
(PID.TID 0000.0001) %MON ke_max                       =   1.3733902442332E-05
(PID.TID 0000.0001) %MON ke_mean                      =   2.7838370755613E-08
(PID.TID 0000.0001) %MON ke_vol                       =   4.6182921452654E+12
(PID.TID 0000.0001) // =======================================================
(PID.TID 0000.0001) // End MONITOR dynamic field statistics
(PID.TID 0000.0001) // =======================================================
(PID.TID 0000.0001) // =======================================================
(PID.TID 0000.0001) // Begin OBCS MONITOR field statistics
(PID.TID 0000.0001) // =======================================================
(PID.TID 0000.0001) %MON obc_N_vVel_max               =  -6.7822695541151E-08
(PID.TID 0000.0001) %MON obc_N_vVel_min               =  -6.7822695541153E-08
(PID.TID 0000.0001) %MON obc_N_vVel_mean              =  -6.7822695541153E-08
(PID.TID 0000.0001) %MON obc_N_vVel_sd                =  -1.0570736129962E-28
(PID.TID 0000.0001) %MON obc_N_vVel_Int               =  -4.4762979057161E+00
(PID.TID 0000.0001) // =======================================================
(PID.TID 0000.0001) // End OBCS MONITOR field statistics
(PID.TID 0000.0001) // =======================================================
 cg2d: Sum(rhs),rhsMax =   3.01147708404831E+00  4.53049361298949E+02
(PID.TID 0000.0001)      cg2d_init_res =   1.43623754933800E-06
(PID.TID 0000.0001)      cg2d_iters(min,last) =      -1      71
(PID.TID 0000.0001)      cg2d_last_res =   7.36834114739489E-12
(PID.TID 0000.0001) // =======================================================
(PID.TID 0000.0001) // Begin MONITOR dynamic field statistics
(PID.TID 0000.0001) // =======================================================
(PID.TID 0000.0001) %MON time_tsnumber                =                   586
(PID.TID 0000.0001) %MON time_secondsf                =   5.8600000000000E+04
(PID.TID 0000.0001) %MON dynstat_eta_max              =   5.7970966420698E+00
(PID.TID 0000.0001) %MON dynstat_eta_min              =  -1.4175585143063E+01
(PID.TID 0000.0001) %MON dynstat_eta_mean             =  -2.5265699435083E+00
(PID.TID 0000.0001) %MON dynstat_eta_sd               =   4.9418172256410E+00
(PID.TID 0000.0001) %MON dynstat_eta_del2             =   1.9058132971419E-01
(PID.TID 0000.0001) %MON dynstat_uvel_max             =   2.4377848310593E-03
(PID.TID 0000.0001) %MON dynstat_uvel_min             =  -6.6712702262972E-03
(PID.TID 0000.0001) %MON dynstat_uvel_mean            =  -1.6543481734821E-09
(PID.TID 0000.0001) %MON dynstat_uvel_sd              =   2.0116812212059E-04
(PID.TID 0000.0001) %MON dynstat_uvel_del2            =   3.5076121892738E-07
(PID.TID 0000.0001) %MON dynstat_vvel_max             =   6.3699434974074E-03
(PID.TID 0000.0001) %MON dynstat_vvel_min             =  -1.8570474629103E-03
(PID.TID 0000.0001) %MON dynstat_vvel_mean            =  -5.5265956612234E-08
(PID.TID 0000.0001) %MON dynstat_vvel_sd              =   1.2716186582681E-04
(PID.TID 0000.0001) %MON dynstat_vvel_del2            =   3.4480169990384E-07
(PID.TID 0000.0001) %MON dynstat_wvel_max             =   2.3488143082362E-04
(PID.TID 0000.0001) %MON dynstat_wvel_min             =  -2.4496197084414E-04
(PID.TID 0000.0001) %MON dynstat_wvel_mean            =   1.5878052199430E-10
(PID.TID 0000.0001) %MON dynstat_wvel_sd              =   1.2643371094181E-05
(PID.TID 0000.0001) %MON dynstat_wvel_del2            =   5.4476225244814E-08
(PID.TID 0000.0001) %MON dynstat_theta_max            =   1.2000000000000E+00
(PID.TID 0000.0001) %MON dynstat_theta_min            =  -1.0000000000000E+00
(PID.TID 0000.0001) %MON dynstat_theta_mean           =   5.6537772030744E-01
(PID.TID 0000.0001) %MON dynstat_theta_sd             =   8.4903847502679E-01
(PID.TID 0000.0001) %MON dynstat_theta_del2           =   9.6645103587771E-07
(PID.TID 0000.0001) %MON dynstat_salt_max             =   3.4700000000000E+01
(PID.TID 0000.0001) %MON dynstat_salt_min             =   3.4000000000000E+01
(PID.TID 0000.0001) %MON dynstat_salt_mean            =   3.4498064716032E+01
(PID.TID 0000.0001) %MON dynstat_salt_sd              =   2.7014914354887E-01
(PID.TID 0000.0001) %MON dynstat_salt_del2            =   3.6990453786514E-07
(PID.TID 0000.0001) %MON advcfl_uvel_max              =   6.6712702262972E-04
(PID.TID 0000.0001) %MON advcfl_vvel_max              =   6.3699434974074E-04
(PID.TID 0000.0001) %MON advcfl_wvel_max              =   1.2248098542207E-03
(PID.TID 0000.0001) %MON advcfl_W_hf_max              =   1.2248098542207E-03
(PID.TID 0000.0001) %MON pe_b_mean                    =  -6.8268866608058E-01
(PID.TID 0000.0001) %MON ke_max                       =   1.3816926279100E-05
(PID.TID 0000.0001) %MON ke_mean                      =   2.7938750509817E-08
(PID.TID 0000.0001) %MON ke_vol                       =   4.6182921598952E+12
(PID.TID 0000.0001) // =======================================================
(PID.TID 0000.0001) // End MONITOR dynamic field statistics
(PID.TID 0000.0001) // =======================================================
(PID.TID 0000.0001) // =======================================================
(PID.TID 0000.0001) // Begin OBCS MONITOR field statistics
(PID.TID 0000.0001) // =======================================================
(PID.TID 0000.0001) %MON obc_N_vVel_max               =  -6.7199330522806E-08
(PID.TID 0000.0001) %MON obc_N_vVel_min               =  -6.7199330522807E-08
(PID.TID 0000.0001) %MON obc_N_vVel_mean              =  -6.7199330522806E-08
(PID.TID 0000.0001) %MON obc_N_vVel_sd                =   1.6183380998215E-14
(PID.TID 0000.0001) %MON obc_N_vVel_Int               =  -4.4351558145052E+00
(PID.TID 0000.0001) // =======================================================
(PID.TID 0000.0001) // End OBCS MONITOR field statistics
(PID.TID 0000.0001) // =======================================================
 cg2d: Sum(rhs),rhsMax =   3.01147420523356E+00  4.53049352099842E+02
(PID.TID 0000.0001)      cg2d_init_res =   1.44304173132799E-06
(PID.TID 0000.0001)      cg2d_iters(min,last) =      -1      71
(PID.TID 0000.0001)      cg2d_last_res =   7.39941271264336E-12
(PID.TID 0000.0001) // =======================================================
(PID.TID 0000.0001) // Begin MONITOR dynamic field statistics
(PID.TID 0000.0001) // =======================================================
(PID.TID 0000.0001) %MON time_tsnumber                =                   587
(PID.TID 0000.0001) %MON time_secondsf                =   5.8700000000000E+04
(PID.TID 0000.0001) %MON dynstat_eta_max              =   5.7970993776829E+00
(PID.TID 0000.0001) %MON dynstat_eta_min              =  -1.4175579846210E+01
(PID.TID 0000.0001) %MON dynstat_eta_mean             =  -2.5265674769379E+00
(PID.TID 0000.0001) %MON dynstat_eta_sd               =   4.9418164556753E+00
(PID.TID 0000.0001) %MON dynstat_eta_del2             =   1.9058133400178E-01
(PID.TID 0000.0001) %MON dynstat_uvel_max             =   2.4418475667716E-03
(PID.TID 0000.0001) %MON dynstat_uvel_min             =  -6.6918946448782E-03
(PID.TID 0000.0001) %MON dynstat_uvel_mean            =  -1.6461949816031E-09
(PID.TID 0000.0001) %MON dynstat_uvel_sd              =   2.0154282968634E-04
(PID.TID 0000.0001) %MON dynstat_uvel_del2            =   3.5140648578202E-07
(PID.TID 0000.0001) %MON dynstat_vvel_max             =   6.3846271924275E-03
(PID.TID 0000.0001) %MON dynstat_vvel_min             =  -1.8635682146400E-03
(PID.TID 0000.0001) %MON dynstat_vvel_mean            =  -5.4706347975563E-08
(PID.TID 0000.0001) %MON dynstat_vvel_sd              =   1.2733522300275E-04
(PID.TID 0000.0001) %MON dynstat_vvel_del2            =   3.4543848337059E-07
(PID.TID 0000.0001) %MON dynstat_wvel_max             =   2.3580971493589E-04
(PID.TID 0000.0001) %MON dynstat_wvel_min             =  -2.4570740683758E-04
(PID.TID 0000.0001) %MON dynstat_wvel_mean            =   1.5830691302831E-10
(PID.TID 0000.0001) %MON dynstat_wvel_sd              =   1.2674832457620E-05
(PID.TID 0000.0001) %MON dynstat_wvel_del2            =   5.4886229158428E-08
(PID.TID 0000.0001) %MON dynstat_theta_max            =   1.2000000000000E+00
(PID.TID 0000.0001) %MON dynstat_theta_min            =  -1.0000000000000E+00
(PID.TID 0000.0001) %MON dynstat_theta_mean           =   5.6537745165270E-01
(PID.TID 0000.0001) %MON dynstat_theta_sd             =   8.4903839255790E-01
(PID.TID 0000.0001) %MON dynstat_theta_del2           =   9.6740384192431E-07
(PID.TID 0000.0001) %MON dynstat_salt_max             =   3.4700000000000E+01
(PID.TID 0000.0001) %MON dynstat_salt_min             =   3.4000000000000E+01
(PID.TID 0000.0001) %MON dynstat_salt_mean            =   3.4498064609360E+01
(PID.TID 0000.0001) %MON dynstat_salt_sd              =   2.7014911542154E-01
(PID.TID 0000.0001) %MON dynstat_salt_del2            =   3.7041866342705E-07
(PID.TID 0000.0001) %MON advcfl_uvel_max              =   6.6918946448782E-04
(PID.TID 0000.0001) %MON advcfl_vvel_max              =   6.3846271924275E-04
(PID.TID 0000.0001) %MON advcfl_wvel_max              =   1.2285370341879E-03
(PID.TID 0000.0001) %MON advcfl_W_hf_max              =   1.2285370341879E-03
(PID.TID 0000.0001) %MON pe_b_mean                    =  -6.8268798746605E-01
(PID.TID 0000.0001) %MON ke_max                       =   1.3900419993346E-05
(PID.TID 0000.0001) %MON ke_mean                      =   2.8034840338486E-08
(PID.TID 0000.0001) %MON ke_vol                       =   4.6182921745356E+12
(PID.TID 0000.0001) // =======================================================
(PID.TID 0000.0001) // End MONITOR dynamic field statistics
(PID.TID 0000.0001) // =======================================================
(PID.TID 0000.0001) // =======================================================
(PID.TID 0000.0001) // Begin OBCS MONITOR field statistics
(PID.TID 0000.0001) // =======================================================
(PID.TID 0000.0001) %MON obc_N_vVel_max               =  -6.6646817290563E-08
(PID.TID 0000.0001) %MON obc_N_vVel_min               =  -6.6646817290565E-08
(PID.TID 0000.0001) %MON obc_N_vVel_mean              =  -6.6646817290563E-08
(PID.TID 0000.0001) %MON obc_N_vVel_sd                =   1.0731900677991E-14
(PID.TID 0000.0001) %MON obc_N_vVel_Int               =  -4.3986899411772E+00
(PID.TID 0000.0001) // =======================================================
(PID.TID 0000.0001) // End OBCS MONITOR field statistics
(PID.TID 0000.0001) // =======================================================
 cg2d: Sum(rhs),rhsMax =   3.01147132397880E+00  4.53049342915745E+02
(PID.TID 0000.0001)      cg2d_init_res =   1.44606637047947E-06
(PID.TID 0000.0001)      cg2d_iters(min,last) =      -1      71
(PID.TID 0000.0001)      cg2d_last_res =   7.43097548890531E-12
(PID.TID 0000.0001) // =======================================================
(PID.TID 0000.0001) // Begin MONITOR dynamic field statistics
(PID.TID 0000.0001) // =======================================================
(PID.TID 0000.0001) %MON time_tsnumber                =                   588
(PID.TID 0000.0001) %MON time_secondsf                =   5.8800000000000E+04
(PID.TID 0000.0001) %MON dynstat_eta_max              =   5.7971021157752E+00
(PID.TID 0000.0001) %MON dynstat_eta_min              =  -1.4175574559759E+01
(PID.TID 0000.0001) %MON dynstat_eta_mean             =  -2.5265650084041E+00
(PID.TID 0000.0001) %MON dynstat_eta_sd               =   4.9418156850883E+00
(PID.TID 0000.0001) %MON dynstat_eta_del2             =   1.9058133829788E-01
(PID.TID 0000.0001) %MON dynstat_uvel_max             =   2.4459192062842E-03
(PID.TID 0000.0001) %MON dynstat_uvel_min             =  -6.7125697895065E-03
(PID.TID 0000.0001) %MON dynstat_uvel_mean            =  -1.6372337790462E-09
(PID.TID 0000.0001) %MON dynstat_uvel_sd              =   2.0191875923414E-04
(PID.TID 0000.0001) %MON dynstat_uvel_del2            =   3.5205505464345E-07
(PID.TID 0000.0001) %MON dynstat_vvel_max             =   6.3993313521262E-03
(PID.TID 0000.0001) %MON dynstat_vvel_min             =  -1.8700985147291E-03
(PID.TID 0000.0001) %MON dynstat_vvel_mean            =  -5.4254286761380E-08
(PID.TID 0000.0001) %MON dynstat_vvel_sd              =   1.2747082525251E-04
(PID.TID 0000.0001) %MON dynstat_vvel_del2            =   3.4589822818472E-07
(PID.TID 0000.0001) %MON dynstat_wvel_max             =   2.3673997936027E-04
(PID.TID 0000.0001) %MON dynstat_wvel_min             =  -2.4645356964307E-04
(PID.TID 0000.0001) %MON dynstat_wvel_mean            =   1.5771765737047E-10
(PID.TID 0000.0001) %MON dynstat_wvel_sd              =   1.2629269777684E-05
(PID.TID 0000.0001) %MON dynstat_wvel_del2            =   5.4987119012843E-08
(PID.TID 0000.0001) %MON dynstat_theta_max            =   1.2000000000000E+00
(PID.TID 0000.0001) %MON dynstat_theta_min            =  -1.0000000000000E+00
(PID.TID 0000.0001) %MON dynstat_theta_mean           =   5.6537718284110E-01
(PID.TID 0000.0001) %MON dynstat_theta_sd             =   8.4903830983715E-01
(PID.TID 0000.0001) %MON dynstat_theta_del2           =   9.6861861476641E-07
(PID.TID 0000.0001) %MON dynstat_salt_max             =   3.4700000000000E+01
(PID.TID 0000.0001) %MON dynstat_salt_min             =   3.4000000000000E+01
(PID.TID 0000.0001) %MON dynstat_salt_mean            =   3.4498064502616E+01
(PID.TID 0000.0001) %MON dynstat_salt_sd              =   2.7014908719937E-01
(PID.TID 0000.0001) %MON dynstat_salt_del2            =   3.7100243294955E-07
(PID.TID 0000.0001) %MON advcfl_uvel_max              =   6.7125697895065E-04
(PID.TID 0000.0001) %MON advcfl_vvel_max              =   6.3993313521262E-04
(PID.TID 0000.0001) %MON advcfl_wvel_max              =   1.2322678482153E-03
(PID.TID 0000.0001) %MON advcfl_W_hf_max              =   1.2322678482153E-03
(PID.TID 0000.0001) %MON pe_b_mean                    =  -6.8268730812922E-01
(PID.TID 0000.0001) %MON ke_max                       =   1.3984386085648E-05
(PID.TID 0000.0001) %MON ke_mean                      =   2.8126526889703E-08
(PID.TID 0000.0001) %MON ke_vol                       =   4.6182921891870E+12
(PID.TID 0000.0001) // =======================================================
(PID.TID 0000.0001) // End MONITOR dynamic field statistics
(PID.TID 0000.0001) // =======================================================
(PID.TID 0000.0001) // =======================================================
(PID.TID 0000.0001) // Begin OBCS MONITOR field statistics
(PID.TID 0000.0001) // =======================================================
(PID.TID 0000.0001) %MON obc_N_vVel_max               =  -6.6182126946248E-08
(PID.TID 0000.0001) %MON obc_N_vVel_min               =  -6.6182126946250E-08
(PID.TID 0000.0001) %MON obc_N_vVel_mean              =  -6.6182126946248E-08
(PID.TID 0000.0001) %MON obc_N_vVel_sd                =   1.8882932218273E-14
(PID.TID 0000.0001) %MON obc_N_vVel_Int               =  -4.3680203784524E+00
(PID.TID 0000.0001) // =======================================================
(PID.TID 0000.0001) // End OBCS MONITOR field statistics
(PID.TID 0000.0001) // =======================================================
 cg2d: Sum(rhs),rhsMax =   3.01146844017615E+00  4.53049333741805E+02
(PID.TID 0000.0001)      cg2d_init_res =   1.44511068890065E-06
(PID.TID 0000.0001)      cg2d_iters(min,last) =      -1      71
(PID.TID 0000.0001)      cg2d_last_res =   7.46207651600443E-12
(PID.TID 0000.0001) // =======================================================
(PID.TID 0000.0001) // Begin MONITOR dynamic field statistics
(PID.TID 0000.0001) // =======================================================
(PID.TID 0000.0001) %MON time_tsnumber                =                   589
(PID.TID 0000.0001) %MON time_secondsf                =   5.8900000000000E+04
(PID.TID 0000.0001) %MON dynstat_eta_max              =   5.7971048565732E+00
(PID.TID 0000.0001) %MON dynstat_eta_min              =  -1.4175569283463E+01
(PID.TID 0000.0001) %MON dynstat_eta_mean             =  -2.5265625377894E+00
(PID.TID 0000.0001) %MON dynstat_eta_sd               =   4.9418149138283E+00
(PID.TID 0000.0001) %MON dynstat_eta_del2             =   1.9058134260235E-01
(PID.TID 0000.0001) %MON dynstat_uvel_max             =   2.4499997371823E-03
(PID.TID 0000.0001) %MON dynstat_uvel_min             =  -6.7332957909922E-03
(PID.TID 0000.0001) %MON dynstat_uvel_mean            =  -1.6276007284984E-09
(PID.TID 0000.0001) %MON dynstat_uvel_sd              =   2.0229590423758E-04
(PID.TID 0000.0001) %MON dynstat_uvel_del2            =   3.5270682439978E-07
(PID.TID 0000.0001) %MON dynstat_vvel_max             =   6.4140560539523E-03
(PID.TID 0000.0001) %MON dynstat_vvel_min             =  -1.8766383687003E-03
(PID.TID 0000.0001) %MON dynstat_vvel_mean            =  -5.3922871670154E-08
(PID.TID 0000.0001) %MON dynstat_vvel_sd              =   1.2757009235432E-04
(PID.TID 0000.0001) %MON dynstat_vvel_del2            =   3.4618443158279E-07
(PID.TID 0000.0001) %MON dynstat_wvel_max             =   2.3767222857294E-04
(PID.TID 0000.0001) %MON dynstat_wvel_min             =  -2.4720045943368E-04
(PID.TID 0000.0001) %MON dynstat_wvel_mean            =   1.5703638230335E-10
(PID.TID 0000.0001) %MON dynstat_wvel_sd              =   1.2508096569157E-05
(PID.TID 0000.0001) %MON dynstat_wvel_del2            =   5.4767693127067E-08
(PID.TID 0000.0001) %MON dynstat_theta_max            =   1.2000000000000E+00
(PID.TID 0000.0001) %MON dynstat_theta_min            =  -1.0000000000000E+00
(PID.TID 0000.0001) %MON dynstat_theta_mean           =   5.6537691387685E-01
(PID.TID 0000.0001) %MON dynstat_theta_sd             =   8.4903822686777E-01
(PID.TID 0000.0001) %MON dynstat_theta_del2           =   9.7009546501427E-07
(PID.TID 0000.0001) %MON dynstat_salt_max             =   3.4700000000000E+01
(PID.TID 0000.0001) %MON dynstat_salt_min             =   3.4000000000000E+01
(PID.TID 0000.0001) %MON dynstat_salt_mean            =   3.4498064395800E+01
(PID.TID 0000.0001) %MON dynstat_salt_sd              =   2.7014905888351E-01
(PID.TID 0000.0001) %MON dynstat_salt_del2            =   3.7165582284520E-07
(PID.TID 0000.0001) %MON advcfl_uvel_max              =   6.7332957909922E-04
(PID.TID 0000.0001) %MON advcfl_vvel_max              =   6.4140560539523E-04
(PID.TID 0000.0001) %MON advcfl_wvel_max              =   1.2360022971684E-03
(PID.TID 0000.0001) %MON advcfl_W_hf_max              =   1.2360022971684E-03
(PID.TID 0000.0001) %MON pe_b_mean                    =  -6.8268662804268E-01
(PID.TID 0000.0001) %MON ke_max                       =   1.4068827068447E-05
(PID.TID 0000.0001) %MON ke_mean                      =   2.8213975976550E-08
(PID.TID 0000.0001) %MON ke_vol                       =   4.6182922038501E+12
(PID.TID 0000.0001) // =======================================================
(PID.TID 0000.0001) // End MONITOR dynamic field statistics
(PID.TID 0000.0001) // =======================================================
(PID.TID 0000.0001) // =======================================================
(PID.TID 0000.0001) // Begin OBCS MONITOR field statistics
(PID.TID 0000.0001) // =======================================================
(PID.TID 0000.0001) %MON obc_N_vVel_max               =  -6.5819356911918E-08
(PID.TID 0000.0001) %MON obc_N_vVel_min               =  -6.5819356911920E-08
(PID.TID 0000.0001) %MON obc_N_vVel_mean              =  -6.5819356911920E-08
(PID.TID 0000.0001) %MON obc_N_vVel_sd                =  -1.4751698927633E-28
(PID.TID 0000.0001) %MON obc_N_vVel_Int               =  -4.3440775561868E+00
(PID.TID 0000.0001) // =======================================================
(PID.TID 0000.0001) // End OBCS MONITOR field statistics
(PID.TID 0000.0001) // =======================================================
 cg2d: Sum(rhs),rhsMax =   3.01146555370231E+00  4.53049324573183E+02
(PID.TID 0000.0001)      cg2d_init_res =   1.44018062589480E-06
(PID.TID 0000.0001)      cg2d_iters(min,last) =      -1      71
(PID.TID 0000.0001)      cg2d_last_res =   7.49215245923905E-12
(PID.TID 0000.0001) // =======================================================
(PID.TID 0000.0001) // Begin MONITOR dynamic field statistics
(PID.TID 0000.0001) // =======================================================
(PID.TID 0000.0001) %MON time_tsnumber                =                   590
(PID.TID 0000.0001) %MON time_secondsf                =   5.9000000000000E+04
(PID.TID 0000.0001) %MON dynstat_eta_max              =   5.7971076003348E+00
(PID.TID 0000.0001) %MON dynstat_eta_min              =  -1.4175564017057E+01
(PID.TID 0000.0001) %MON dynstat_eta_mean             =  -2.5265600649634E+00
(PID.TID 0000.0001) %MON dynstat_eta_sd               =   4.9418141418432E+00
(PID.TID 0000.0001) %MON dynstat_eta_del2             =   1.9058134691506E-01
(PID.TID 0000.0001) %MON dynstat_uvel_max             =   2.4540891466014E-03
(PID.TID 0000.0001) %MON dynstat_uvel_min             =  -6.7540727801312E-03
(PID.TID 0000.0001) %MON dynstat_uvel_mean            =  -1.6174381057136E-09
(PID.TID 0000.0001) %MON dynstat_uvel_sd              =   2.0267425288894E-04
(PID.TID 0000.0001) %MON dynstat_uvel_del2            =   3.5336166162558E-07
(PID.TID 0000.0001) %MON dynstat_vvel_max             =   6.4288013758400E-03
(PID.TID 0000.0001) %MON dynstat_vvel_min             =  -1.8831877818677E-03
(PID.TID 0000.0001) %MON dynstat_vvel_mean            =  -5.3721217268592E-08
(PID.TID 0000.0001) %MON dynstat_vvel_sd              =   1.2763652260707E-04
(PID.TID 0000.0001) %MON dynstat_vvel_del2            =   3.4631084748550E-07
(PID.TID 0000.0001) %MON dynstat_wvel_max             =   2.3860646705364E-04
(PID.TID 0000.0001) %MON dynstat_wvel_min             =  -2.4794807643845E-04
(PID.TID 0000.0001) %MON dynstat_wvel_mean            =   1.5628926372596E-10
(PID.TID 0000.0001) %MON dynstat_wvel_sd              =   1.2315859180546E-05
(PID.TID 0000.0001) %MON dynstat_wvel_del2            =   5.4230628257463E-08
(PID.TID 0000.0001) %MON dynstat_theta_max            =   1.2000000000000E+00
(PID.TID 0000.0001) %MON dynstat_theta_min            =  -1.0000000000000E+00
(PID.TID 0000.0001) %MON dynstat_theta_mean           =   5.6537664476206E-01
(PID.TID 0000.0001) %MON dynstat_theta_sd             =   8.4903814365385E-01
(PID.TID 0000.0001) %MON dynstat_theta_del2           =   9.7181900742410E-07
(PID.TID 0000.0001) %MON dynstat_salt_max             =   3.4700000000000E+01
(PID.TID 0000.0001) %MON dynstat_salt_min             =   3.4000000000000E+01
(PID.TID 0000.0001) %MON dynstat_salt_mean            =   3.4498064288914E+01
(PID.TID 0000.0001) %MON dynstat_salt_sd              =   2.7014903047505E-01
(PID.TID 0000.0001) %MON dynstat_salt_del2            =   3.7237471646006E-07
(PID.TID 0000.0001) %MON advcfl_uvel_max              =   6.7540727801312E-04
(PID.TID 0000.0001) %MON advcfl_vvel_max              =   6.4288013758400E-04
(PID.TID 0000.0001) %MON advcfl_wvel_max              =   1.2397403821923E-03
(PID.TID 0000.0001) %MON advcfl_W_hf_max              =   1.2397403821923E-03
(PID.TID 0000.0001) %MON pe_b_mean                    =  -6.8268594717706E-01
(PID.TID 0000.0001) %MON ke_max                       =   1.4153745465890E-05
(PID.TID 0000.0001) %MON ke_mean                      =   2.8297622269970E-08
(PID.TID 0000.0001) %MON ke_vol                       =   4.6182922185255E+12
(PID.TID 0000.0001) // =======================================================
(PID.TID 0000.0001) // End MONITOR dynamic field statistics
(PID.TID 0000.0001) // =======================================================
(PID.TID 0000.0001) // =======================================================
(PID.TID 0000.0001) // Begin OBCS MONITOR field statistics
(PID.TID 0000.0001) // =======================================================
(PID.TID 0000.0001) %MON obc_N_vVel_max               =  -6.5569198177353E-08
(PID.TID 0000.0001) %MON obc_N_vVel_min               =  -6.5569198177355E-08
(PID.TID 0000.0001) %MON obc_N_vVel_mean              =  -6.5569198177353E-08
(PID.TID 0000.0001) %MON obc_N_vVel_sd                =   1.2080532582047E-14
(PID.TID 0000.0001) %MON obc_N_vVel_Int               =  -4.3275670797053E+00
(PID.TID 0000.0001) // =======================================================
(PID.TID 0000.0001) // End OBCS MONITOR field statistics
(PID.TID 0000.0001) // =======================================================
 cg2d: Sum(rhs),rhsMax =   3.01146266442467E+00  4.53049315405136E+02
(PID.TID 0000.0001)      cg2d_init_res =   1.43149429738070E-06
(PID.TID 0000.0001)      cg2d_iters(min,last) =      -1      71
(PID.TID 0000.0001)      cg2d_last_res =   7.52137449273543E-12
(PID.TID 0000.0001) // =======================================================
(PID.TID 0000.0001) // Begin MONITOR dynamic field statistics
(PID.TID 0000.0001) // =======================================================
(PID.TID 0000.0001) %MON time_tsnumber                =                   591
(PID.TID 0000.0001) %MON time_secondsf                =   5.9100000000000E+04
(PID.TID 0000.0001) %MON dynstat_eta_max              =   5.7971103472990E+00
(PID.TID 0000.0001) %MON dynstat_eta_min              =  -1.4175558760274E+01
(PID.TID 0000.0001) %MON dynstat_eta_mean             =  -2.5265575897884E+00
(PID.TID 0000.0001) %MON dynstat_eta_sd               =   4.9418133690818E+00
(PID.TID 0000.0001) %MON dynstat_eta_del2             =   1.9058135123592E-01
(PID.TID 0000.0001) %MON dynstat_uvel_max             =   2.4581874212455E-03
(PID.TID 0000.0001) %MON dynstat_uvel_min             =  -6.7749008878613E-03
(PID.TID 0000.0001) %MON dynstat_uvel_mean            =  -1.6068985983735E-09
(PID.TID 0000.0001) %MON dynstat_uvel_sd              =   2.0305378901806E-04
(PID.TID 0000.0001) %MON dynstat_uvel_del2            =   3.5401940684121E-07
(PID.TID 0000.0001) %MON dynstat_vvel_max             =   6.4435673963579E-03
(PID.TID 0000.0001) %MON dynstat_vvel_min             =  -1.8897467594208E-03
(PID.TID 0000.0001) %MON dynstat_vvel_mean            =  -5.3654207713020E-08
(PID.TID 0000.0001) %MON dynstat_vvel_sd              =   1.2767548917749E-04
(PID.TID 0000.0001) %MON dynstat_vvel_del2            =   3.4630084298168E-07
(PID.TID 0000.0001) %MON dynstat_wvel_max             =   2.3954269931107E-04
(PID.TID 0000.0001) %MON dynstat_wvel_min             =  -2.4869642097072E-04
(PID.TID 0000.0001) %MON dynstat_wvel_mean            =   1.5550486223068E-10
(PID.TID 0000.0001) %MON dynstat_wvel_sd              =   1.2060276852795E-05
(PID.TID 0000.0001) %MON dynstat_wvel_del2            =   5.3392846126309E-08
(PID.TID 0000.0001) %MON dynstat_theta_max            =   1.2000000000000E+00
(PID.TID 0000.0001) %MON dynstat_theta_min            =  -1.0000000000000E+00
(PID.TID 0000.0001) %MON dynstat_theta_mean           =   5.6537637549679E-01
(PID.TID 0000.0001) %MON dynstat_theta_sd             =   8.4903806021180E-01
(PID.TID 0000.0001) %MON dynstat_theta_del2           =   9.7375965268336E-07
(PID.TID 0000.0001) %MON dynstat_salt_max             =   3.4700000000000E+01
(PID.TID 0000.0001) %MON dynstat_salt_min             =   3.4000000000000E+01
(PID.TID 0000.0001) %MON dynstat_salt_mean            =   3.4498064181957E+01
(PID.TID 0000.0001) %MON dynstat_salt_sd              =   2.7014900197910E-01
(PID.TID 0000.0001) %MON dynstat_salt_del2            =   3.7315121490490E-07
(PID.TID 0000.0001) %MON advcfl_uvel_max              =   6.7749008878613E-04
(PID.TID 0000.0001) %MON advcfl_vvel_max              =   6.4435673963579E-04
(PID.TID 0000.0001) %MON advcfl_wvel_max              =   1.2434821048536E-03
(PID.TID 0000.0001) %MON advcfl_W_hf_max              =   1.2434821048536E-03
(PID.TID 0000.0001) %MON pe_b_mean                    =  -6.8268526550238E-01
(PID.TID 0000.0001) %MON ke_max                       =   1.4239143814525E-05
(PID.TID 0000.0001) %MON ke_mean                      =   2.8378143329521E-08
(PID.TID 0000.0001) %MON ke_vol                       =   4.6182922332141E+12
(PID.TID 0000.0001) // =======================================================
(PID.TID 0000.0001) // End MONITOR dynamic field statistics
(PID.TID 0000.0001) // =======================================================
(PID.TID 0000.0001) // =======================================================
(PID.TID 0000.0001) // Begin OBCS MONITOR field statistics
(PID.TID 0000.0001) // =======================================================
(PID.TID 0000.0001) %MON obc_N_vVel_max               =  -6.5438667633898E-08
(PID.TID 0000.0001) %MON obc_N_vVel_min               =  -6.5438667633898E-08
(PID.TID 0000.0001) %MON obc_N_vVel_mean              =  -6.5438667633898E-08
(PID.TID 0000.0001) %MON obc_N_vVel_sd                =   9.0576781872059E-15
(PID.TID 0000.0001) %MON obc_N_vVel_Int               =  -4.3189520638373E+00
(PID.TID 0000.0001) // =======================================================
(PID.TID 0000.0001) // End OBCS MONITOR field statistics
(PID.TID 0000.0001) // =======================================================
 cg2d: Sum(rhs),rhsMax =   3.01145977220532E+00  4.53049306233094E+02
(PID.TID 0000.0001)      cg2d_init_res =   1.41948188433131E-06
(PID.TID 0000.0001)      cg2d_iters(min,last) =      -1      71
(PID.TID 0000.0001)      cg2d_last_res =   7.55006311471234E-12
(PID.TID 0000.0001) // =======================================================
(PID.TID 0000.0001) // Begin MONITOR dynamic field statistics
(PID.TID 0000.0001) // =======================================================
(PID.TID 0000.0001) %MON time_tsnumber                =                   592
(PID.TID 0000.0001) %MON time_secondsf                =   5.9200000000000E+04
(PID.TID 0000.0001) %MON dynstat_eta_max              =   5.7971130977151E+00
(PID.TID 0000.0001) %MON dynstat_eta_min              =  -1.4175553512830E+01
(PID.TID 0000.0001) %MON dynstat_eta_mean             =  -2.5265551121231E+00
(PID.TID 0000.0001) %MON dynstat_eta_sd               =   4.9418125954960E+00
(PID.TID 0000.0001) %MON dynstat_eta_del2             =   1.9058135556482E-01
(PID.TID 0000.0001) %MON dynstat_uvel_max             =   2.4622945473407E-03
(PID.TID 0000.0001) %MON dynstat_uvel_min             =  -6.7957802450005E-03
(PID.TID 0000.0001) %MON dynstat_uvel_mean            =  -1.5961529649317E-09
(PID.TID 0000.0001) %MON dynstat_uvel_sd              =   2.0343449325040E-04
(PID.TID 0000.0001) %MON dynstat_uvel_del2            =   3.5467988200783E-07
(PID.TID 0000.0001) %MON dynstat_vvel_max             =   6.4583541943790E-03
(PID.TID 0000.0001) %MON dynstat_vvel_min             =  -1.8963153062650E-03
(PID.TID 0000.0001) %MON dynstat_vvel_mean            =  -5.3722365867372E-08
(PID.TID 0000.0001) %MON dynstat_vvel_sd              =   1.2769393108350E-04
(PID.TID 0000.0001) %MON dynstat_vvel_del2            =   3.4618619579034E-07
(PID.TID 0000.0001) %MON dynstat_wvel_max             =   2.4048092985889E-04
(PID.TID 0000.0001) %MON dynstat_wvel_min             =  -2.4944549339603E-04
(PID.TID 0000.0001) %MON dynstat_wvel_mean            =   1.5471265134205E-10
(PID.TID 0000.0001) %MON dynstat_wvel_sd              =   1.1752273935570E-05
(PID.TID 0000.0001) %MON dynstat_wvel_del2            =   5.2285870471768E-08
(PID.TID 0000.0001) %MON dynstat_theta_max            =   1.2000000000000E+00
(PID.TID 0000.0001) %MON dynstat_theta_min            =  -1.0000000000000E+00
(PID.TID 0000.0001) %MON dynstat_theta_mean           =   5.6537610607900E-01
(PID.TID 0000.0001) %MON dynstat_theta_sd             =   8.4903797655785E-01
(PID.TID 0000.0001) %MON dynstat_theta_del2           =   9.7587487643984E-07
(PID.TID 0000.0001) %MON dynstat_salt_max             =   3.4700000000000E+01
(PID.TID 0000.0001) %MON dynstat_salt_min             =   3.4000000000000E+01
(PID.TID 0000.0001) %MON dynstat_salt_mean            =   3.4498064074929E+01
(PID.TID 0000.0001) %MON dynstat_salt_sd              =   2.7014897340118E-01
(PID.TID 0000.0001) %MON dynstat_salt_del2            =   3.7397412839843E-07
(PID.TID 0000.0001) %MON advcfl_uvel_max              =   6.7957802450005E-04
(PID.TID 0000.0001) %MON advcfl_vvel_max              =   6.4583541943790E-04
(PID.TID 0000.0001) %MON advcfl_wvel_max              =   1.2472274669801E-03
(PID.TID 0000.0001) %MON advcfl_W_hf_max              =   1.2472274669801E-03
(PID.TID 0000.0001) %MON pe_b_mean                    =  -6.8268458298874E-01
(PID.TID 0000.0001) %MON ke_max                       =   1.4325024662364E-05
(PID.TID 0000.0001) %MON ke_mean                      =   2.8456419420983E-08
(PID.TID 0000.0001) %MON ke_vol                       =   4.6182922479167E+12
(PID.TID 0000.0001) // =======================================================
(PID.TID 0000.0001) // End MONITOR dynamic field statistics
(PID.TID 0000.0001) // =======================================================
(PID.TID 0000.0001) // =======================================================
(PID.TID 0000.0001) // Begin OBCS MONITOR field statistics
(PID.TID 0000.0001) // =======================================================
(PID.TID 0000.0001) %MON obc_N_vVel_max               =  -6.5430847546351E-08
(PID.TID 0000.0001) %MON obc_N_vVel_min               =  -6.5430847546353E-08
(PID.TID 0000.0001) %MON obc_N_vVel_mean              =  -6.5430847546353E-08
(PID.TID 0000.0001) %MON obc_N_vVel_sd                =  -1.7276053824340E-28
(PID.TID 0000.0001) %MON obc_N_vVel_Int               =  -4.3184359380593E+00
(PID.TID 0000.0001) // =======================================================
(PID.TID 0000.0001) // End OBCS MONITOR field statistics
(PID.TID 0000.0001) // =======================================================
 cg2d: Sum(rhs),rhsMax =   3.01145687690549E+00  4.53049297052718E+02
(PID.TID 0000.0001)      cg2d_init_res =   1.40477520759598E-06
(PID.TID 0000.0001)      cg2d_iters(min,last) =      -1      71
(PID.TID 0000.0001)      cg2d_last_res =   7.57825730127627E-12
(PID.TID 0000.0001) // =======================================================
(PID.TID 0000.0001) // Begin MONITOR dynamic field statistics
(PID.TID 0000.0001) // =======================================================
(PID.TID 0000.0001) %MON time_tsnumber                =                   593
(PID.TID 0000.0001) %MON time_secondsf                =   5.9300000000000E+04
(PID.TID 0000.0001) %MON dynstat_eta_max              =   5.7971158518048E+00
(PID.TID 0000.0001) %MON dynstat_eta_min              =  -1.4175548274462E+01
(PID.TID 0000.0001) %MON dynstat_eta_mean             =  -2.5265526318270E+00
(PID.TID 0000.0001) %MON dynstat_eta_sd               =   4.9418118210410E+00
(PID.TID 0000.0001) %MON dynstat_eta_del2             =   1.9058135990168E-01
(PID.TID 0000.0001) %MON dynstat_uvel_max             =   2.4664105100030E-03
(PID.TID 0000.0001) %MON dynstat_uvel_min             =  -6.8167109824220E-03
(PID.TID 0000.0001) %MON dynstat_uvel_mean            =  -1.5853880789663E-09
(PID.TID 0000.0001) %MON dynstat_uvel_sd              =   2.0381634434067E-04
(PID.TID 0000.0001) %MON dynstat_uvel_del2            =   3.5534289925266E-07
(PID.TID 0000.0001) %MON dynstat_vvel_max             =   6.4731618491221E-03
(PID.TID 0000.0001) %MON dynstat_vvel_min             =  -1.9028934271796E-03
(PID.TID 0000.0001) %MON dynstat_vvel_mean            =  -5.3921868374225E-08
(PID.TID 0000.0001) %MON dynstat_vvel_sd              =   1.2769995369646E-04
(PID.TID 0000.0001) %MON dynstat_vvel_del2            =   3.4600536992147E-07
(PID.TID 0000.0001) %MON dynstat_wvel_max             =   2.4142116325367E-04
(PID.TID 0000.0001) %MON dynstat_wvel_min             =  -2.5019529416324E-04
(PID.TID 0000.0001) %MON dynstat_wvel_mean            =   1.5394191361118E-10
(PID.TID 0000.0001) %MON dynstat_wvel_sd              =   1.1405969452765E-05
(PID.TID 0000.0001) %MON dynstat_wvel_del2            =   5.0956105414571E-08
(PID.TID 0000.0001) %MON dynstat_theta_max            =   1.2000000000000E+00
(PID.TID 0000.0001) %MON dynstat_theta_min            =  -1.0000000000000E+00
(PID.TID 0000.0001) %MON dynstat_theta_mean           =   5.6537583650450E-01
(PID.TID 0000.0001) %MON dynstat_theta_sd             =   8.4903789270163E-01
(PID.TID 0000.0001) %MON dynstat_theta_del2           =   9.7811265008980E-07
(PID.TID 0000.0001) %MON dynstat_salt_max             =   3.4700000000000E+01
(PID.TID 0000.0001) %MON dynstat_salt_min             =   3.4000000000000E+01
(PID.TID 0000.0001) %MON dynstat_salt_mean            =   3.4498063967828E+01
(PID.TID 0000.0001) %MON dynstat_salt_sd              =   2.7014894474393E-01
(PID.TID 0000.0001) %MON dynstat_salt_del2            =   3.7482971027201E-07
(PID.TID 0000.0001) %MON advcfl_uvel_max              =   6.8167109824220E-04
(PID.TID 0000.0001) %MON advcfl_vvel_max              =   6.4731618491221E-04
(PID.TID 0000.0001) %MON advcfl_wvel_max              =   1.2509764708162E-03
(PID.TID 0000.0001) %MON advcfl_W_hf_max              =   1.2509764708162E-03
(PID.TID 0000.0001) %MON pe_b_mean                    =  -6.8268389960720E-01
(PID.TID 0000.0001) %MON ke_max                       =   1.4411390569691E-05
(PID.TID 0000.0001) %MON ke_mean                      =   2.8533481457233E-08
(PID.TID 0000.0001) %MON ke_vol                       =   4.6182922626340E+12
(PID.TID 0000.0001) // =======================================================
(PID.TID 0000.0001) // End MONITOR dynamic field statistics
(PID.TID 0000.0001) // =======================================================
(PID.TID 0000.0001) // =======================================================
(PID.TID 0000.0001) // Begin OBCS MONITOR field statistics
(PID.TID 0000.0001) // =======================================================
(PID.TID 0000.0001) %MON obc_N_vVel_max               =  -6.5544822552663E-08
(PID.TID 0000.0001) %MON obc_N_vVel_min               =  -6.5544822552664E-08
(PID.TID 0000.0001) %MON obc_N_vVel_mean              =  -6.5544822552664E-08
(PID.TID 0000.0001) %MON obc_N_vVel_sd                =  -3.1554436208840E-30
(PID.TID 0000.0001) %MON obc_N_vVel_Int               =  -4.3259582884758E+00
(PID.TID 0000.0001) // =======================================================
(PID.TID 0000.0001) // End OBCS MONITOR field statistics
(PID.TID 0000.0001) // =======================================================
 cg2d: Sum(rhs),rhsMax =   3.01145397839119E+00  4.53049287859974E+02
(PID.TID 0000.0001)      cg2d_init_res =   1.38818815223703E-06
(PID.TID 0000.0001)      cg2d_iters(min,last) =      -1      71
(PID.TID 0000.0001)      cg2d_last_res =   7.60588983517938E-12
(PID.TID 0000.0001) // =======================================================
(PID.TID 0000.0001) // Begin MONITOR dynamic field statistics
(PID.TID 0000.0001) // =======================================================
(PID.TID 0000.0001) %MON time_tsnumber                =                   594
(PID.TID 0000.0001) %MON time_secondsf                =   5.9400000000000E+04
(PID.TID 0000.0001) %MON dynstat_eta_max              =   5.7971186097818E+00
(PID.TID 0000.0001) %MON dynstat_eta_min              =  -1.4175543044920E+01
(PID.TID 0000.0001) %MON dynstat_eta_mean             =  -2.5265501487652E+00
(PID.TID 0000.0001) %MON dynstat_eta_sd               =   4.9418110456777E+00
(PID.TID 0000.0001) %MON dynstat_eta_del2             =   1.9058136424641E-01
(PID.TID 0000.0001) %MON dynstat_uvel_max             =   2.4705352934209E-03
(PID.TID 0000.0001) %MON dynstat_uvel_min             =  -6.8376932309828E-03
(PID.TID 0000.0001) %MON dynstat_uvel_mean            =  -1.5748026518031E-09
(PID.TID 0000.0001) %MON dynstat_uvel_sd              =   2.0419932061900E-04
(PID.TID 0000.0001) %MON dynstat_uvel_del2            =   3.5600827003342E-07
(PID.TID 0000.0001) %MON dynstat_vvel_max             =   6.4879904400166E-03
(PID.TID 0000.0001) %MON dynstat_vvel_min             =  -1.9094811266198E-03
(PID.TID 0000.0001) %MON dynstat_vvel_mean            =  -5.4244716627884E-08
(PID.TID 0000.0001) %MON dynstat_vvel_sd              =   1.2770235897162E-04
(PID.TID 0000.0001) %MON dynstat_vvel_del2            =   3.4580133770939E-07
(PID.TID 0000.0001) %MON dynstat_wvel_max             =   2.4236340407639E-04
(PID.TID 0000.0001) %MON dynstat_wvel_min             =  -2.5094582376655E-04
(PID.TID 0000.0001) %MON dynstat_wvel_mean            =   1.5322087756813E-10
(PID.TID 0000.0001) %MON dynstat_wvel_sd              =   1.1038559936490E-05
(PID.TID 0000.0001) %MON dynstat_wvel_del2            =   4.9464873495703E-08
(PID.TID 0000.0001) %MON dynstat_theta_max            =   1.2000000000000E+00
(PID.TID 0000.0001) %MON dynstat_theta_min            =  -1.0000000000000E+00
(PID.TID 0000.0001) %MON dynstat_theta_mean           =   5.6537556676708E-01
(PID.TID 0000.0001) %MON dynstat_theta_sd             =   8.4903780864796E-01
(PID.TID 0000.0001) %MON dynstat_theta_del2           =   9.8041458514921E-07
(PID.TID 0000.0001) %MON dynstat_salt_max             =   3.4700000000000E+01
(PID.TID 0000.0001) %MON dynstat_salt_min             =   3.4000000000000E+01
(PID.TID 0000.0001) %MON dynstat_salt_mean            =   3.4498063860652E+01
(PID.TID 0000.0001) %MON dynstat_salt_sd              =   2.7014891600913E-01
(PID.TID 0000.0001) %MON dynstat_salt_del2            =   3.7570252388272E-07
(PID.TID 0000.0001) %MON advcfl_uvel_max              =   6.8376932309828E-04
(PID.TID 0000.0001) %MON advcfl_vvel_max              =   6.4879904400166E-04
(PID.TID 0000.0001) %MON advcfl_wvel_max              =   1.2547291188327E-03
(PID.TID 0000.0001) %MON advcfl_W_hf_max              =   1.2547291188327E-03
(PID.TID 0000.0001) %MON pe_b_mean                    =  -6.8268321533081E-01
(PID.TID 0000.0001) %MON ke_max                       =   1.4498244108796E-05
(PID.TID 0000.0001) %MON ke_mean                      =   2.8610450115139E-08
(PID.TID 0000.0001) %MON ke_vol                       =   4.6182922773669E+12
(PID.TID 0000.0001) // =======================================================
(PID.TID 0000.0001) // End MONITOR dynamic field statistics
(PID.TID 0000.0001) // =======================================================
(PID.TID 0000.0001) // =======================================================
(PID.TID 0000.0001) // Begin OBCS MONITOR field statistics
(PID.TID 0000.0001) // =======================================================
(PID.TID 0000.0001) %MON obc_N_vVel_max               =  -6.5775770173661E-08
(PID.TID 0000.0001) %MON obc_N_vVel_min               =  -6.5775770173663E-08
(PID.TID 0000.0001) %MON obc_N_vVel_mean              =  -6.5775770173661E-08
(PID.TID 0000.0001) %MON obc_N_vVel_sd                =   9.9301366129891E-15
(PID.TID 0000.0001) %MON obc_N_vVel_Int               =  -4.3412008314617E+00
(PID.TID 0000.0001) // =======================================================
(PID.TID 0000.0001) // End OBCS MONITOR field statistics
(PID.TID 0000.0001) // =======================================================
 cg2d: Sum(rhs),rhsMax =   3.01145107653688E+00  4.53049278651163E+02
(PID.TID 0000.0001)      cg2d_init_res =   1.37068562870937E-06
(PID.TID 0000.0001)      cg2d_iters(min,last) =      -1      71
(PID.TID 0000.0001)      cg2d_last_res =   7.63273011982150E-12
(PID.TID 0000.0001) // =======================================================
(PID.TID 0000.0001) // Begin MONITOR dynamic field statistics
(PID.TID 0000.0001) // =======================================================
(PID.TID 0000.0001) %MON time_tsnumber                =                   595
(PID.TID 0000.0001) %MON time_secondsf                =   5.9500000000000E+04
(PID.TID 0000.0001) %MON dynstat_eta_max              =   5.7971213718158E+00
(PID.TID 0000.0001) %MON dynstat_eta_min              =  -1.4175537823985E+01
(PID.TID 0000.0001) %MON dynstat_eta_mean             =  -2.5265476628117E+00
(PID.TID 0000.0001) %MON dynstat_eta_sd               =   4.9418102693734E+00
(PID.TID 0000.0001) %MON dynstat_eta_del2             =   1.9058136859897E-01
(PID.TID 0000.0001) %MON dynstat_uvel_max             =   2.4746688814208E-03
(PID.TID 0000.0001) %MON dynstat_uvel_min             =  -6.8587271214486E-03
(PID.TID 0000.0001) %MON dynstat_uvel_mean            =  -1.5645996102369E-09
(PID.TID 0000.0001) %MON dynstat_uvel_sd              =   2.0458340146052E-04
(PID.TID 0000.0001) %MON dynstat_uvel_del2            =   3.5667581408669E-07
(PID.TID 0000.0001) %MON dynstat_vvel_max             =   6.5028400468616E-03
(PID.TID 0000.0001) %MON dynstat_vvel_min             =  -1.9160784088861E-03
(PID.TID 0000.0001) %MON dynstat_vvel_mean            =  -5.4679049454855E-08
(PID.TID 0000.0001) %MON dynstat_vvel_sd              =   1.2771013067459E-04
(PID.TID 0000.0001) %MON dynstat_vvel_del2            =   3.4561904989263E-07
(PID.TID 0000.0001) %MON dynstat_wvel_max             =   2.4330765694567E-04
(PID.TID 0000.0001) %MON dynstat_wvel_min             =  -2.5169708274120E-04
(PID.TID 0000.0001) %MON dynstat_wvel_mean            =   1.5257588396534E-10
(PID.TID 0000.0001) %MON dynstat_wvel_sd              =   1.0669989873980E-05
(PID.TID 0000.0001) %MON dynstat_wvel_del2            =   4.7887907481968E-08
(PID.TID 0000.0001) %MON dynstat_theta_max            =   1.2000000000000E+00
(PID.TID 0000.0001) %MON dynstat_theta_min            =  -1.0000000000000E+00
(PID.TID 0000.0001) %MON dynstat_theta_mean           =   5.6537529685849E-01
(PID.TID 0000.0001) %MON dynstat_theta_sd             =   8.4903772440273E-01
(PID.TID 0000.0001) %MON dynstat_theta_del2           =   9.8271955812437E-07
(PID.TID 0000.0001) %MON dynstat_salt_max             =   3.4700000000000E+01
(PID.TID 0000.0001) %MON dynstat_salt_min             =   3.4000000000000E+01
(PID.TID 0000.0001) %MON dynstat_salt_mean            =   3.4498063753399E+01
(PID.TID 0000.0001) %MON dynstat_salt_sd              =   2.7014888719858E-01
(PID.TID 0000.0001) %MON dynstat_salt_del2            =   3.7657642623809E-07
(PID.TID 0000.0001) %MON advcfl_uvel_max              =   6.8587271214486E-04
(PID.TID 0000.0001) %MON advcfl_vvel_max              =   6.5028400468616E-04
(PID.TID 0000.0001) %MON advcfl_wvel_max              =   1.2584854137060E-03
(PID.TID 0000.0001) %MON advcfl_W_hf_max              =   1.2584854137060E-03
(PID.TID 0000.0001) %MON pe_b_mean                    =  -6.8268253013525E-01
(PID.TID 0000.0001) %MON ke_max                       =   1.4585587863480E-05
(PID.TID 0000.0001) %MON ke_mean                      =   2.8688469735603E-08
(PID.TID 0000.0001) %MON ke_vol                       =   4.6182922921163E+12
(PID.TID 0000.0001) // =======================================================
(PID.TID 0000.0001) // End MONITOR dynamic field statistics
(PID.TID 0000.0001) // =======================================================
(PID.TID 0000.0001) // =======================================================
(PID.TID 0000.0001) // Begin OBCS MONITOR field statistics
(PID.TID 0000.0001) // =======================================================
(PID.TID 0000.0001) %MON obc_N_vVel_max               =  -6.6115174578796E-08
(PID.TID 0000.0001) %MON obc_N_vVel_min               =  -6.6115174578797E-08
(PID.TID 0000.0001) %MON obc_N_vVel_mean              =  -6.6115174578796E-08
(PID.TID 0000.0001) %MON obc_N_vVel_sd                =   1.0471469134067E-14
(PID.TID 0000.0001) %MON obc_N_vVel_Int               =  -4.3636015222005E+00
(PID.TID 0000.0001) // =======================================================
(PID.TID 0000.0001) // End OBCS MONITOR field statistics
(PID.TID 0000.0001) // =======================================================
 cg2d: Sum(rhs),rhsMax =   3.01144817122980E+00  4.53049269422963E+02
(PID.TID 0000.0001)      cg2d_init_res =   1.35333908662796E-06
(PID.TID 0000.0001)      cg2d_iters(min,last) =      -1      71
(PID.TID 0000.0001)      cg2d_last_res =   7.65813156690508E-12
(PID.TID 0000.0001) // =======================================================
(PID.TID 0000.0001) // Begin MONITOR dynamic field statistics
(PID.TID 0000.0001) // =======================================================
(PID.TID 0000.0001) %MON time_tsnumber                =                   596
(PID.TID 0000.0001) %MON time_secondsf                =   5.9600000000000E+04
(PID.TID 0000.0001) %MON dynstat_eta_max              =   5.7971241380580E+00
(PID.TID 0000.0001) %MON dynstat_eta_min              =  -1.4175532611455E+01
(PID.TID 0000.0001) %MON dynstat_eta_mean             =  -2.5265451738533E+00
(PID.TID 0000.0001) %MON dynstat_eta_sd               =   4.9418094921029E+00
(PID.TID 0000.0001) %MON dynstat_eta_del2             =   1.9058137295925E-01
(PID.TID 0000.0001) %MON dynstat_uvel_max             =   2.4788112574257E-03
(PID.TID 0000.0001) %MON dynstat_uvel_min             =  -6.8798127845877E-03
(PID.TID 0000.0001) %MON dynstat_uvel_mean            =  -1.5549616748560E-09
(PID.TID 0000.0001) %MON dynstat_uvel_sd              =   2.0496856872198E-04
(PID.TID 0000.0001) %MON dynstat_uvel_del2            =   3.5734536810832E-07
(PID.TID 0000.0001) %MON dynstat_vvel_max             =   6.5177107497536E-03
(PID.TID 0000.0001) %MON dynstat_vvel_min             =  -1.9226852780978E-03
(PID.TID 0000.0001) %MON dynstat_vvel_mean            =  -5.5209569807015E-08
(PID.TID 0000.0001) %MON dynstat_vvel_sd              =   1.2773190396330E-04
(PID.TID 0000.0001) %MON dynstat_vvel_del2            =   3.4550269091426E-07
(PID.TID 0000.0001) %MON dynstat_wvel_max             =   2.4425392649740E-04
(PID.TID 0000.0001) %MON dynstat_wvel_min             =  -2.5244907169925E-04
(PID.TID 0000.0001) %MON dynstat_wvel_mean            =   1.5203074337625E-10
(PID.TID 0000.0001) %MON dynstat_wvel_sd              =   1.0322257550063E-05
(PID.TID 0000.0001) %MON dynstat_wvel_del2            =   4.6313788484989E-08
(PID.TID 0000.0001) %MON dynstat_theta_max            =   1.2000000000000E+00
(PID.TID 0000.0001) %MON dynstat_theta_min            =  -1.0000000000000E+00
(PID.TID 0000.0001) %MON dynstat_theta_mean           =   5.6537502676853E-01
(PID.TID 0000.0001) %MON dynstat_theta_sd             =   8.4903763997008E-01
(PID.TID 0000.0001) %MON dynstat_theta_del2           =   9.8496770043833E-07
(PID.TID 0000.0001) %MON dynstat_salt_max             =   3.4700000000000E+01
(PID.TID 0000.0001) %MON dynstat_salt_min             =   3.4000000000000E+01
(PID.TID 0000.0001) %MON dynstat_salt_mean            =   3.4498063646065E+01
(PID.TID 0000.0001) %MON dynstat_salt_sd              =   2.7014885831346E-01
(PID.TID 0000.0001) %MON dynstat_salt_del2            =   3.7743560956456E-07
(PID.TID 0000.0001) %MON advcfl_uvel_max              =   6.8798127845877E-04
(PID.TID 0000.0001) %MON advcfl_vvel_max              =   6.5177107497536E-04
(PID.TID 0000.0001) %MON advcfl_wvel_max              =   1.2622453584962E-03
(PID.TID 0000.0001) %MON advcfl_W_hf_max              =   1.2622453584962E-03
(PID.TID 0000.0001) %MON pe_b_mean                    =  -6.8268184399952E-01
(PID.TID 0000.0001) %MON ke_max                       =   1.4673424429862E-05
(PID.TID 0000.0001) %MON ke_mean                      =   2.8768640954046E-08
(PID.TID 0000.0001) %MON ke_vol                       =   4.6182923068829E+12
(PID.TID 0000.0001) // =======================================================
(PID.TID 0000.0001) // End MONITOR dynamic field statistics
(PID.TID 0000.0001) // =======================================================
(PID.TID 0000.0001) // =======================================================
(PID.TID 0000.0001) // Begin OBCS MONITOR field statistics
(PID.TID 0000.0001) // =======================================================
(PID.TID 0000.0001) %MON obc_N_vVel_max               =  -6.6551155327154E-08
(PID.TID 0000.0001) %MON obc_N_vVel_min               =  -6.6551155327155E-08
(PID.TID 0000.0001) %MON obc_N_vVel_mean              =  -6.6551155327154E-08
(PID.TID 0000.0001) %MON obc_N_vVel_sd                =   1.2654594571138E-14
(PID.TID 0000.0001) %MON obc_N_vVel_Int               =  -4.3923762515921E+00
(PID.TID 0000.0001) // =======================================================
(PID.TID 0000.0001) // End OBCS MONITOR field statistics
(PID.TID 0000.0001) // =======================================================
 cg2d: Sum(rhs),rhsMax =   3.01144526237383E+00  4.53049260172441E+02
(PID.TID 0000.0001)      cg2d_init_res =   1.33727000760895E-06
(PID.TID 0000.0001)      cg2d_iters(min,last) =      -1      71
(PID.TID 0000.0001)      cg2d_last_res =   7.68151758935459E-12
(PID.TID 0000.0001) // =======================================================
(PID.TID 0000.0001) // Begin MONITOR dynamic field statistics
(PID.TID 0000.0001) // =======================================================
(PID.TID 0000.0001) %MON time_tsnumber                =                   597
(PID.TID 0000.0001) %MON time_secondsf                =   5.9700000000000E+04
(PID.TID 0000.0001) %MON dynstat_eta_max              =   5.7971269086123E+00
(PID.TID 0000.0001) %MON dynstat_eta_min              =  -1.4175527407187E+01
(PID.TID 0000.0001) %MON dynstat_eta_mean             =  -2.5265426817931E+00
(PID.TID 0000.0001) %MON dynstat_eta_sd               =   4.9418087138505E+00
(PID.TID 0000.0001) %MON dynstat_eta_del2             =   1.9058137732736E-01
(PID.TID 0000.0001) %MON dynstat_uvel_max             =   2.4829624043594E-03
(PID.TID 0000.0001) %MON dynstat_uvel_min             =  -6.9009503508530E-03
(PID.TID 0000.0001) %MON dynstat_uvel_mean            =  -1.5460386450865E-09
(PID.TID 0000.0001) %MON dynstat_uvel_sd              =   2.0535480805364E-04
(PID.TID 0000.0001) %MON dynstat_uvel_del2            =   3.5801679389468E-07
(PID.TID 0000.0001) %MON dynstat_vvel_max             =   6.5326026290875E-03
(PID.TID 0000.0001) %MON dynstat_vvel_min             =  -1.9293017384641E-03
(PID.TID 0000.0001) %MON dynstat_vvel_mean            =  -5.5818077850473E-08
(PID.TID 0000.0001) %MON dynstat_vvel_sd              =   1.2777545144471E-04
(PID.TID 0000.0001) %MON dynstat_vvel_del2            =   3.4549288732499E-07
(PID.TID 0000.0001) %MON dynstat_wvel_max             =   2.4520221738442E-04
(PID.TID 0000.0001) %MON dynstat_wvel_min             =  -2.5320179132523E-04
(PID.TID 0000.0001) %MON dynstat_wvel_mean            =   1.5160585861366E-10
(PID.TID 0000.0001) %MON dynstat_wvel_sd              =   1.0018180150301E-05
(PID.TID 0000.0001) %MON dynstat_wvel_del2            =   4.4840601903576E-08
(PID.TID 0000.0001) %MON dynstat_theta_max            =   1.2000000000000E+00
(PID.TID 0000.0001) %MON dynstat_theta_min            =  -1.0000000000000E+00
(PID.TID 0000.0001) %MON dynstat_theta_mean           =   5.6537475648525E-01
(PID.TID 0000.0001) %MON dynstat_theta_sd             =   8.4903755535550E-01
(PID.TID 0000.0001) %MON dynstat_theta_del2           =   9.8710413621606E-07
(PID.TID 0000.0001) %MON dynstat_salt_max             =   3.4700000000000E+01
(PID.TID 0000.0001) %MON dynstat_salt_min             =   3.4000000000000E+01
(PID.TID 0000.0001) %MON dynstat_salt_mean            =   3.4498063538647E+01
(PID.TID 0000.0001) %MON dynstat_salt_sd              =   2.7014882935561E-01
(PID.TID 0000.0001) %MON dynstat_salt_del2            =   3.7826557507583E-07
(PID.TID 0000.0001) %MON advcfl_uvel_max              =   6.9009503508530E-04
(PID.TID 0000.0001) %MON advcfl_vvel_max              =   6.5326026290875E-04
(PID.TID 0000.0001) %MON advcfl_wvel_max              =   1.2660089566261E-03
(PID.TID 0000.0001) %MON advcfl_W_hf_max              =   1.2660089566261E-03
(PID.TID 0000.0001) %MON pe_b_mean                    =  -6.8268115690639E-01
(PID.TID 0000.0001) %MON ke_max                       =   1.4761756414218E-05
(PID.TID 0000.0001) %MON ke_mean                      =   2.8851956109579E-08
(PID.TID 0000.0001) %MON ke_vol                       =   4.6182923216673E+12
(PID.TID 0000.0001) // =======================================================
(PID.TID 0000.0001) // End MONITOR dynamic field statistics
(PID.TID 0000.0001) // =======================================================
(PID.TID 0000.0001) // =======================================================
(PID.TID 0000.0001) // Begin OBCS MONITOR field statistics
(PID.TID 0000.0001) // =======================================================
(PID.TID 0000.0001) %MON obc_N_vVel_max               =  -6.7068879596008E-08
(PID.TID 0000.0001) %MON obc_N_vVel_min               =  -6.7068879596009E-08
(PID.TID 0000.0001) %MON obc_N_vVel_mean              =  -6.7068879596009E-08
(PID.TID 0000.0001) %MON obc_N_vVel_sd                =  -1.6487192919119E-28
(PID.TID 0000.0001) %MON obc_N_vVel_Int               =  -4.4265460533366E+00
(PID.TID 0000.0001) // =======================================================
(PID.TID 0000.0001) // End OBCS MONITOR field statistics
(PID.TID 0000.0001) // =======================================================
 cg2d: Sum(rhs),rhsMax =   3.01144234989340E+00  4.53049250897061E+02
(PID.TID 0000.0001)      cg2d_init_res =   1.32356839355000E-06
(PID.TID 0000.0001)      cg2d_iters(min,last) =      -1      71
(PID.TID 0000.0001)      cg2d_last_res =   7.70200284113713E-12
(PID.TID 0000.0001) // =======================================================
(PID.TID 0000.0001) // Begin MONITOR dynamic field statistics
(PID.TID 0000.0001) // =======================================================
(PID.TID 0000.0001) %MON time_tsnumber                =                   598
(PID.TID 0000.0001) %MON time_secondsf                =   5.9800000000000E+04
(PID.TID 0000.0001) %MON dynstat_eta_max              =   5.7971296835482E+00
(PID.TID 0000.0001) %MON dynstat_eta_min              =  -1.4175522211063E+01
(PID.TID 0000.0001) %MON dynstat_eta_mean             =  -2.5265401865535E+00
(PID.TID 0000.0001) %MON dynstat_eta_sd               =   4.9418079346067E+00
(PID.TID 0000.0001) %MON dynstat_eta_del2             =   1.9058138170328E-01
(PID.TID 0000.0001) %MON dynstat_uvel_max             =   2.4871223048333E-03
(PID.TID 0000.0001) %MON dynstat_uvel_min             =  -6.9221399506363E-03
(PID.TID 0000.0001) %MON dynstat_uvel_mean            =  -1.5379600722689E-09
(PID.TID 0000.0001) %MON dynstat_uvel_sd              =   2.0574211002036E-04
(PID.TID 0000.0001) %MON dynstat_uvel_del2            =   3.5868998437134E-07
(PID.TID 0000.0001) %MON dynstat_vvel_max             =   6.5475157653099E-03
(PID.TID 0000.0001) %MON dynstat_vvel_min             =  -1.9359277940785E-03
(PID.TID 0000.0001) %MON dynstat_vvel_mean            =  -5.6484081900866E-08
(PID.TID 0000.0001) %MON dynstat_vvel_sd              =   1.2784721845450E-04
(PID.TID 0000.0001) %MON dynstat_vvel_del2            =   3.4562406041566E-07
(PID.TID 0000.0001) %MON dynstat_wvel_max             =   2.4615253427020E-04
(PID.TID 0000.0001) %MON dynstat_wvel_min             =  -2.5395524235225E-04
(PID.TID 0000.0001) %MON dynstat_wvel_mean            =   1.5131771682494E-10
(PID.TID 0000.0001) %MON dynstat_wvel_sd              =   9.7794973714447E-06
(PID.TID 0000.0001) %MON dynstat_wvel_del2            =   4.3569989354690E-08
(PID.TID 0000.0001) %MON dynstat_theta_max            =   1.2000000000000E+00
(PID.TID 0000.0001) %MON dynstat_theta_min            =  -1.0000000000000E+00
(PID.TID 0000.0001) %MON dynstat_theta_mean           =   5.6537448599514E-01
(PID.TID 0000.0001) %MON dynstat_theta_sd             =   8.4903747056562E-01
(PID.TID 0000.0001) %MON dynstat_theta_del2           =   9.8908228099911E-07
(PID.TID 0000.0001) %MON dynstat_salt_max             =   3.4700000000000E+01
(PID.TID 0000.0001) %MON dynstat_salt_min             =   3.4000000000000E+01
(PID.TID 0000.0001) %MON dynstat_salt_mean            =   3.4498063431140E+01
(PID.TID 0000.0001) %MON dynstat_salt_sd              =   2.7014880032706E-01
(PID.TID 0000.0001) %MON dynstat_salt_del2            =   3.7905400778468E-07
(PID.TID 0000.0001) %MON advcfl_uvel_max              =   6.9221399506363E-04
(PID.TID 0000.0001) %MON advcfl_vvel_max              =   6.5475157653099E-04
(PID.TID 0000.0001) %MON advcfl_wvel_max              =   1.2697762117612E-03
(PID.TID 0000.0001) %MON advcfl_W_hf_max              =   1.2697762117612E-03
(PID.TID 0000.0001) %MON pe_b_mean                    =  -6.8268046884318E-01
(PID.TID 0000.0001) %MON ke_max                       =   1.4850586434737E-05
(PID.TID 0000.0001) %MON ke_mean                      =   2.8939241329924E-08
(PID.TID 0000.0001) %MON ke_vol                       =   4.6182923364701E+12
(PID.TID 0000.0001) // =======================================================
(PID.TID 0000.0001) // End MONITOR dynamic field statistics
(PID.TID 0000.0001) // =======================================================
(PID.TID 0000.0001) // =======================================================
(PID.TID 0000.0001) // Begin OBCS MONITOR field statistics
(PID.TID 0000.0001) // =======================================================
(PID.TID 0000.0001) %MON obc_N_vVel_max               =  -6.7651055464071E-08
(PID.TID 0000.0001) %MON obc_N_vVel_min               =  -6.7651055464072E-08
(PID.TID 0000.0001) %MON obc_N_vVel_mean              =  -6.7651055464071E-08
(PID.TID 0000.0001) %MON obc_N_vVel_sd                =   1.6710977243963E-14
(PID.TID 0000.0001) %MON obc_N_vVel_Int               =  -4.4649696606287E+00
(PID.TID 0000.0001) // =======================================================
(PID.TID 0000.0001) // End OBCS MONITOR field statistics
(PID.TID 0000.0001) // =======================================================
 cg2d: Sum(rhs),rhsMax =   3.01143943373596E+00  4.53049241594723E+02
(PID.TID 0000.0001)      cg2d_init_res =   1.31321296286064E-06
(PID.TID 0000.0001)      cg2d_iters(min,last) =      -1      71
(PID.TID 0000.0001)      cg2d_last_res =   7.71938587707056E-12
(PID.TID 0000.0001) // =======================================================
(PID.TID 0000.0001) // Begin MONITOR dynamic field statistics
(PID.TID 0000.0001) // =======================================================
(PID.TID 0000.0001) %MON time_tsnumber                =                   599
(PID.TID 0000.0001) %MON time_secondsf                =   5.9900000000000E+04
(PID.TID 0000.0001) %MON dynstat_eta_max              =   5.7971324628726E+00
(PID.TID 0000.0001) %MON dynstat_eta_min              =  -1.4175517023032E+01
(PID.TID 0000.0001) %MON dynstat_eta_mean             =  -2.5265376880787E+00
(PID.TID 0000.0001) %MON dynstat_eta_sd               =   4.9418071543701E+00
(PID.TID 0000.0001) %MON dynstat_eta_del2             =   1.9058138608698E-01
(PID.TID 0000.0001) %MON dynstat_uvel_max             =   2.4912909444055E-03
(PID.TID 0000.0001) %MON dynstat_uvel_min             =  -6.9433817141951E-03
(PID.TID 0000.0001) %MON dynstat_uvel_mean            =  -1.5308174437192E-09
(PID.TID 0000.0001) %MON dynstat_uvel_sd              =   2.0613047098219E-04
(PID.TID 0000.0001) %MON dynstat_uvel_del2            =   3.5936486819284E-07
(PID.TID 0000.0001) %MON dynstat_vvel_max             =   6.5624502400736E-03
(PID.TID 0000.0001) %MON dynstat_vvel_min             =  -1.9425634491164E-03
(PID.TID 0000.0001) %MON dynstat_vvel_mean            =  -5.7185473411393E-08
(PID.TID 0000.0001) %MON dynstat_vvel_sd              =   1.2795193873902E-04
(PID.TID 0000.0001) %MON dynstat_vvel_del2            =   3.4592212163814E-07
(PID.TID 0000.0001) %MON dynstat_wvel_max             =   2.4710488176149E-04
(PID.TID 0000.0001) %MON dynstat_wvel_min             =  -2.5470942556040E-04
(PID.TID 0000.0001) %MON dynstat_wvel_mean            =   1.5117831142812E-10
(PID.TID 0000.0001) %MON dynstat_wvel_sd              =   9.6243924418170E-06
(PID.TID 0000.0001) %MON dynstat_wvel_del2            =   4.2598085390201E-08
(PID.TID 0000.0001) %MON dynstat_theta_max            =   1.2000000000000E+00
(PID.TID 0000.0001) %MON dynstat_theta_min            =  -1.0000000000000E+00
(PID.TID 0000.0001) %MON dynstat_theta_mean           =   5.6537421528334E-01
(PID.TID 0000.0001) %MON dynstat_theta_sd             =   8.4903738559837E-01
(PID.TID 0000.0001) %MON dynstat_theta_del2           =   9.9086720576764E-07
(PID.TID 0000.0001) %MON dynstat_salt_max             =   3.4700000000000E+01
(PID.TID 0000.0001) %MON dynstat_salt_min             =   3.4000000000000E+01
(PID.TID 0000.0001) %MON dynstat_salt_mean            =   3.4498063323539E+01
(PID.TID 0000.0001) %MON dynstat_salt_sd              =   2.7014877122703E-01
(PID.TID 0000.0001) %MON dynstat_salt_del2            =   3.7979166400294E-07
(PID.TID 0000.0001) %MON advcfl_uvel_max              =   6.9433817141951E-04
(PID.TID 0000.0001) %MON advcfl_vvel_max              =   6.5624502400736E-04
(PID.TID 0000.0001) %MON advcfl_wvel_max              =   1.2735471278020E-03
(PID.TID 0000.0001) %MON advcfl_W_hf_max              =   1.2735471278020E-03
(PID.TID 0000.0001) %MON pe_b_mean                    =  -6.8267977980204E-01
(PID.TID 0000.0001) %MON ke_max                       =   1.4939917120479E-05
(PID.TID 0000.0001) %MON ke_mean                      =   2.9031108825308E-08
(PID.TID 0000.0001) %MON ke_vol                       =   4.6182923512919E+12
(PID.TID 0000.0001) // =======================================================
(PID.TID 0000.0001) // End MONITOR dynamic field statistics
(PID.TID 0000.0001) // =======================================================
(PID.TID 0000.0001) // =======================================================
(PID.TID 0000.0001) // Begin OBCS MONITOR field statistics
(PID.TID 0000.0001) // =======================================================
(PID.TID 0000.0001) %MON obc_N_vVel_max               =  -6.8278520161442E-08
(PID.TID 0000.0001) %MON obc_N_vVel_min               =  -6.8278520161444E-08
(PID.TID 0000.0001) %MON obc_N_vVel_mean              =  -6.8278520161444E-08
(PID.TID 0000.0001) %MON obc_N_vVel_sd                =  -4.4333982873421E-28
(PID.TID 0000.0001) %MON obc_N_vVel_Int               =  -4.5063823306553E+00
(PID.TID 0000.0001) // =======================================================
(PID.TID 0000.0001) // End OBCS MONITOR field statistics
(PID.TID 0000.0001) // =======================================================
 cg2d: Sum(rhs),rhsMax =   3.01143651387064E+00  4.53049232263717E+02
(PID.TID 0000.0001)      cg2d_init_res =   1.30697750607139E-06
(PID.TID 0000.0001)      cg2d_iters(min,last) =      -1      71
(PID.TID 0000.0001)      cg2d_last_res =   7.73400784252756E-12
(PID.TID 0000.0001) // =======================================================
(PID.TID 0000.0001) // Begin MONITOR dynamic field statistics
(PID.TID 0000.0001) // =======================================================
(PID.TID 0000.0001) %MON time_tsnumber                =                   600
(PID.TID 0000.0001) %MON time_secondsf                =   6.0000000000000E+04
(PID.TID 0000.0001) %MON dynstat_eta_max              =   5.7971352465648E+00
(PID.TID 0000.0001) %MON dynstat_eta_min              =  -1.4175511843069E+01
(PID.TID 0000.0001) %MON dynstat_eta_mean             =  -2.5265351863334E+00
(PID.TID 0000.0001) %MON dynstat_eta_sd               =   4.9418063731477E+00
(PID.TID 0000.0001) %MON dynstat_eta_del2             =   1.9058139047837E-01
(PID.TID 0000.0001) %MON dynstat_uvel_max             =   2.4954683106451E-03
(PID.TID 0000.0001) %MON dynstat_uvel_min             =  -6.9646757715667E-03
(PID.TID 0000.0001) %MON dynstat_uvel_mean            =  -1.5246679531244E-09
(PID.TID 0000.0001) %MON dynstat_uvel_sd              =   2.0651989368766E-04
(PID.TID 0000.0001) %MON dynstat_uvel_del2            =   3.6004141222973E-07
(PID.TID 0000.0001) %MON dynstat_vvel_max             =   6.5774061350574E-03
(PID.TID 0000.0001) %MON dynstat_vvel_min             =  -1.9492087080017E-03
(PID.TID 0000.0001) %MON dynstat_vvel_mean            =  -5.7899281593342E-08
(PID.TID 0000.0001) %MON dynstat_vvel_sd              =   1.2809235691497E-04
(PID.TID 0000.0001) %MON dynstat_vvel_del2            =   3.4640269605850E-07
(PID.TID 0000.0001) %MON dynstat_wvel_max             =   2.4805926431753E-04
(PID.TID 0000.0001) %MON dynstat_wvel_min             =  -2.5546434185882E-04
(PID.TID 0000.0001) %MON dynstat_wvel_mean            =   1.5119457986131E-10
(PID.TID 0000.0001) %MON dynstat_wvel_sd              =   9.5648522638860E-06
(PID.TID 0000.0001) %MON dynstat_wvel_del2            =   4.2003846264014E-08
(PID.TID 0000.0001) %MON dynstat_theta_max            =   1.2000000000000E+00
(PID.TID 0000.0001) %MON dynstat_theta_min            =  -1.0000000000000E+00
(PID.TID 0000.0001) %MON dynstat_theta_mean           =   5.6537394433360E-01
(PID.TID 0000.0001) %MON dynstat_theta_sd             =   8.4903730044107E-01
(PID.TID 0000.0001) %MON dynstat_theta_del2           =   9.9243757371421E-07
(PID.TID 0000.0001) %MON dynstat_salt_max             =   3.4700000000000E+01
(PID.TID 0000.0001) %MON dynstat_salt_min             =   3.4000000000000E+01
(PID.TID 0000.0001) %MON dynstat_salt_mean            =   3.4498063215839E+01
(PID.TID 0000.0001) %MON dynstat_salt_sd              =   2.7014874205154E-01
(PID.TID 0000.0001) %MON dynstat_salt_del2            =   3.8047297026065E-07
(PID.TID 0000.0001) %MON advcfl_uvel_max              =   6.9646757715667E-04
(PID.TID 0000.0001) %MON advcfl_vvel_max              =   6.5774061350574E-04
(PID.TID 0000.0001) %MON advcfl_wvel_max              =   1.2773217092941E-03
(PID.TID 0000.0001) %MON advcfl_W_hf_max              =   1.2773217092941E-03
(PID.TID 0000.0001) %MON pe_b_mean                    =  -6.8267908977949E-01
(PID.TID 0000.0001) %MON ke_max                       =   1.5029751111039E-05
(PID.TID 0000.0001) %MON ke_mean                      =   2.9127922263323E-08
(PID.TID 0000.0001) %MON ke_vol                       =   4.6182923661328E+12
(PID.TID 0000.0001) // =======================================================
(PID.TID 0000.0001) // End MONITOR dynamic field statistics
(PID.TID 0000.0001) // =======================================================
(PID.TID 0000.0001) // =======================================================
(PID.TID 0000.0001) // Begin OBCS MONITOR field statistics
(PID.TID 0000.0001) // =======================================================
(PID.TID 0000.0001) %MON obc_N_vVel_max               =  -6.8930869947901E-08
(PID.TID 0000.0001) %MON obc_N_vVel_min               =  -6.8930869947902E-08
(PID.TID 0000.0001) %MON obc_N_vVel_mean              =  -6.8930869947902E-08
(PID.TID 0000.0001) %MON obc_N_vVel_sd                =  -1.2621774483536E-28
(PID.TID 0000.0001) %MON obc_N_vVel_Int               =  -4.5494374165616E+00
(PID.TID 0000.0001) // =======================================================
(PID.TID 0000.0001) // End OBCS MONITOR field statistics
(PID.TID 0000.0001) // =======================================================
 cg2d: Sum(rhs),rhsMax =   3.01143359029092E+00  4.53049222902718E+02
(PID.TID 0000.0001)      cg2d_init_res =   1.30536125431578E-06
(PID.TID 0000.0001)      cg2d_iters(min,last) =      -1      71
(PID.TID 0000.0001)      cg2d_last_res =   7.74675661324286E-12
(PID.TID 0000.0001) // =======================================================
(PID.TID 0000.0001) // Begin MONITOR dynamic field statistics
(PID.TID 0000.0001) // =======================================================
(PID.TID 0000.0001) %MON time_tsnumber                =                   601
(PID.TID 0000.0001) %MON time_secondsf                =   6.0100000000000E+04
(PID.TID 0000.0001) %MON dynstat_eta_max              =   5.7971380345441E+00
(PID.TID 0000.0001) %MON dynstat_eta_min              =  -1.4175506671217E+01
(PID.TID 0000.0001) %MON dynstat_eta_mean             =  -2.5265326813045E+00
(PID.TID 0000.0001) %MON dynstat_eta_sd               =   4.9418055909538E+00
(PID.TID 0000.0001) %MON dynstat_eta_del2             =   1.9058139487751E-01
(PID.TID 0000.0001) %MON dynstat_uvel_max             =   2.4996543836249E-03
(PID.TID 0000.0001) %MON dynstat_uvel_min             =  -6.9860222524456E-03
(PID.TID 0000.0001) %MON dynstat_uvel_mean            =  -1.5195399932183E-09
(PID.TID 0000.0001) %MON dynstat_uvel_sd              =   2.0691038754899E-04
(PID.TID 0000.0001) %MON dynstat_uvel_del2            =   3.6071962189812E-07
(PID.TID 0000.0001) %MON dynstat_vvel_max             =   6.5923835285582E-03
(PID.TID 0000.0001) %MON dynstat_vvel_min             =  -1.9558635754056E-03
(PID.TID 0000.0001) %MON dynstat_vvel_mean            =  -5.8602436702173E-08
(PID.TID 0000.0001) %MON dynstat_vvel_sd              =   1.2826907709553E-04
(PID.TID 0000.0001) %MON dynstat_vvel_del2            =   3.4707002436975E-07
(PID.TID 0000.0001) %MON dynstat_wvel_max             =   2.4901568665567E-04
(PID.TID 0000.0001) %MON dynstat_wvel_min             =  -2.5621999219411E-04
(PID.TID 0000.0001) %MON dynstat_wvel_mean            =   1.5136811160501E-10
(PID.TID 0000.0001) %MON dynstat_wvel_sd              =   9.6046105397278E-06
(PID.TID 0000.0001) %MON dynstat_wvel_del2            =   4.1836939900917E-08
(PID.TID 0000.0001) %MON dynstat_theta_max            =   1.2000000000000E+00
(PID.TID 0000.0001) %MON dynstat_theta_min            =  -1.0000000000000E+00
(PID.TID 0000.0001) %MON dynstat_theta_mean           =   5.6537367312869E-01
(PID.TID 0000.0001) %MON dynstat_theta_sd             =   8.4903721508801E-01
(PID.TID 0000.0001) %MON dynstat_theta_del2           =   9.9378632766273E-07
(PID.TID 0000.0001) %MON dynstat_salt_max             =   3.4700000000000E+01
(PID.TID 0000.0001) %MON dynstat_salt_min             =   3.4000000000000E+01
(PID.TID 0000.0001) %MON dynstat_salt_mean            =   3.4498063108035E+01
(PID.TID 0000.0001) %MON dynstat_salt_sd              =   2.7014871279862E-01
(PID.TID 0000.0001) %MON dynstat_salt_del2            =   3.8109610145684E-07
(PID.TID 0000.0001) %MON advcfl_uvel_max              =   6.9860222524456E-04
(PID.TID 0000.0001) %MON advcfl_vvel_max              =   6.5923835285582E-04
(PID.TID 0000.0001) %MON advcfl_wvel_max              =   1.2810999609706E-03
(PID.TID 0000.0001) %MON advcfl_W_hf_max              =   1.2810999609706E-03
(PID.TID 0000.0001) %MON pe_b_mean                    =  -6.8267839877668E-01
(PID.TID 0000.0001) %MON ke_max                       =   1.5120091055896E-05
(PID.TID 0000.0001) %MON ke_mean                      =   2.9229777294317E-08
(PID.TID 0000.0001) %MON ke_vol                       =   4.6182923809932E+12
(PID.TID 0000.0001) // =======================================================
(PID.TID 0000.0001) // End MONITOR dynamic field statistics
(PID.TID 0000.0001) // =======================================================
(PID.TID 0000.0001) // =======================================================
(PID.TID 0000.0001) // Begin OBCS MONITOR field statistics
(PID.TID 0000.0001) // =======================================================
(PID.TID 0000.0001) %MON obc_N_vVel_max               =  -6.9587151055260E-08
(PID.TID 0000.0001) %MON obc_N_vVel_min               =  -6.9587151055261E-08
(PID.TID 0000.0001) %MON obc_N_vVel_mean              =  -6.9587151055260E-08
(PID.TID 0000.0001) %MON obc_N_vVel_sd                =   3.3232593448442E-15
(PID.TID 0000.0001) %MON obc_N_vVel_Int               =  -4.5927519696472E+00
(PID.TID 0000.0001) // =======================================================
(PID.TID 0000.0001) // End OBCS MONITOR field statistics
(PID.TID 0000.0001) // =======================================================
 cg2d: Sum(rhs),rhsMax =   3.01143066301738E+00  4.53049213510774E+02
(PID.TID 0000.0001)      cg2d_init_res =   1.30853658337849E-06
(PID.TID 0000.0001)      cg2d_iters(min,last) =      -1      71
(PID.TID 0000.0001)      cg2d_last_res =   7.75865325746722E-12
(PID.TID 0000.0001) // =======================================================
(PID.TID 0000.0001) // Begin MONITOR dynamic field statistics
(PID.TID 0000.0001) // =======================================================
(PID.TID 0000.0001) %MON time_tsnumber                =                   602
(PID.TID 0000.0001) %MON time_secondsf                =   6.0200000000000E+04
(PID.TID 0000.0001) %MON dynstat_eta_max              =   5.7971408266839E+00
(PID.TID 0000.0001) %MON dynstat_eta_min              =  -1.4175501507558E+01
(PID.TID 0000.0001) %MON dynstat_eta_mean             =  -2.5265301730042E+00
(PID.TID 0000.0001) %MON dynstat_eta_sd               =   4.9418048078091E+00
(PID.TID 0000.0001) %MON dynstat_eta_del2             =   1.9058139928432E-01
(PID.TID 0000.0001) %MON dynstat_uvel_max             =   2.5038491438032E-03
(PID.TID 0000.0001) %MON dynstat_uvel_min             =  -7.0074212862252E-03
(PID.TID 0000.0001) %MON dynstat_uvel_mean            =  -1.5154223772201E-09
(PID.TID 0000.0001) %MON dynstat_uvel_sd              =   2.0730196860171E-04
(PID.TID 0000.0001) %MON dynstat_uvel_del2            =   3.6139953951000E-07
(PID.TID 0000.0001) %MON dynstat_vvel_max             =   6.6073824996786E-03
(PID.TID 0000.0001) %MON dynstat_vvel_min             =  -1.9625280562661E-03
(PID.TID 0000.0001) %MON dynstat_vvel_mean            =  -5.9272486130418E-08
(PID.TID 0000.0001) %MON dynstat_vvel_sd              =   1.2848054930443E-04
(PID.TID 0000.0001) %MON dynstat_vvel_del2            =   3.4791664491984E-07
(PID.TID 0000.0001) %MON dynstat_wvel_max             =   2.4997415364768E-04
(PID.TID 0000.0001) %MON dynstat_wvel_min             =  -2.5697637758625E-04
(PID.TID 0000.0001) %MON dynstat_wvel_mean            =   1.5169561112096E-10
(PID.TID 0000.0001) %MON dynstat_wvel_sd              =   9.7384271668806E-06
(PID.TID 0000.0001) %MON dynstat_wvel_del2            =   4.2108787660626E-08
(PID.TID 0000.0001) %MON dynstat_theta_max            =   1.2000000000000E+00
(PID.TID 0000.0001) %MON dynstat_theta_min            =  -1.0000000000000E+00
(PID.TID 0000.0001) %MON dynstat_theta_mean           =   5.6537340165087E-01
(PID.TID 0000.0001) %MON dynstat_theta_sd             =   8.4903712953122E-01
(PID.TID 0000.0001) %MON dynstat_theta_del2           =   9.9492208782249E-07
(PID.TID 0000.0001) %MON dynstat_salt_max             =   3.4700000000000E+01
(PID.TID 0000.0001) %MON dynstat_salt_min             =   3.4000000000000E+01
(PID.TID 0000.0001) %MON dynstat_salt_mean            =   3.4498063000121E+01
(PID.TID 0000.0001) %MON dynstat_salt_sd              =   2.7014868346596E-01
(PID.TID 0000.0001) %MON dynstat_salt_del2            =   3.8166338112690E-07
(PID.TID 0000.0001) %MON advcfl_uvel_max              =   7.0074212862252E-04
(PID.TID 0000.0001) %MON advcfl_vvel_max              =   6.6073824996786E-04
(PID.TID 0000.0001) %MON advcfl_wvel_max              =   1.2848818879312E-03
(PID.TID 0000.0001) %MON advcfl_W_hf_max              =   1.2848818879312E-03
(PID.TID 0000.0001) %MON pe_b_mean                    =  -6.8267770679980E-01
(PID.TID 0000.0001) %MON ke_max                       =   1.5210939614304E-05
(PID.TID 0000.0001) %MON ke_mean                      =   2.9336498518746E-08
(PID.TID 0000.0001) %MON ke_vol                       =   4.6182923958731E+12
(PID.TID 0000.0001) // =======================================================
(PID.TID 0000.0001) // End MONITOR dynamic field statistics
(PID.TID 0000.0001) // =======================================================
(PID.TID 0000.0001) // =======================================================
(PID.TID 0000.0001) // Begin OBCS MONITOR field statistics
(PID.TID 0000.0001) // =======================================================
(PID.TID 0000.0001) %MON obc_N_vVel_max               =  -7.0226553433939E-08
(PID.TID 0000.0001) %MON obc_N_vVel_min               =  -7.0226553433940E-08
(PID.TID 0000.0001) %MON obc_N_vVel_mean              =  -7.0226553433939E-08
(PID.TID 0000.0001) %MON obc_N_vVel_sd                =   1.6616296724221E-14
(PID.TID 0000.0001) %MON obc_N_vVel_Int               =  -4.6349525266400E+00
(PID.TID 0000.0001) // =======================================================
(PID.TID 0000.0001) // End OBCS MONITOR field statistics
(PID.TID 0000.0001) // =======================================================
 cg2d: Sum(rhs),rhsMax =   3.01142773209515E+00  4.53049204087298E+02
(PID.TID 0000.0001)      cg2d_init_res =   1.31631479804438E-06
(PID.TID 0000.0001)      cg2d_iters(min,last) =      -1      71
(PID.TID 0000.0001)      cg2d_last_res =   7.77094550988161E-12
(PID.TID 0000.0001) // =======================================================
(PID.TID 0000.0001) // Begin MONITOR dynamic field statistics
(PID.TID 0000.0001) // =======================================================
(PID.TID 0000.0001) %MON time_tsnumber                =                   603
(PID.TID 0000.0001) %MON time_secondsf                =   6.0300000000000E+04
(PID.TID 0000.0001) %MON dynstat_eta_max              =   5.7971436228315E+00
(PID.TID 0000.0001) %MON dynstat_eta_min              =  -1.4175496352217E+01
(PID.TID 0000.0001) %MON dynstat_eta_mean             =  -2.5265276614669E+00
(PID.TID 0000.0001) %MON dynstat_eta_sd               =   4.9418040237405E+00
(PID.TID 0000.0001) %MON dynstat_eta_del2             =   1.9058140369874E-01
(PID.TID 0000.0001) %MON dynstat_uvel_max             =   2.5080525711267E-03
(PID.TID 0000.0001) %MON dynstat_uvel_min             =  -7.0288730020209E-03
(PID.TID 0000.0001) %MON dynstat_uvel_mean            =  -1.5122518631065E-09
(PID.TID 0000.0001) %MON dynstat_uvel_sd              =   2.0769465914925E-04
(PID.TID 0000.0001) %MON dynstat_uvel_del2            =   3.6208124054781E-07
(PID.TID 0000.0001) %MON dynstat_vvel_max             =   6.6224031269611E-03
(PID.TID 0000.0001) %MON dynstat_vvel_min             =  -1.9692021559790E-03
(PID.TID 0000.0001) %MON dynstat_vvel_mean            =  -5.9888308070797E-08
(PID.TID 0000.0001) %MON dynstat_vvel_sd              =   1.2872319366928E-04
(PID.TID 0000.0001) %MON dynstat_vvel_del2            =   3.4892388832233E-07
(PID.TID 0000.0001) %MON dynstat_wvel_max             =   2.5093467012929E-04
(PID.TID 0000.0001) %MON dynstat_wvel_min             =  -2.5773349910039E-04
(PID.TID 0000.0001) %MON dynstat_wvel_mean            =   1.5216907603085E-10
(PID.TID 0000.0001) %MON dynstat_wvel_sd              =   9.9530060475588E-06
(PID.TID 0000.0001) %MON dynstat_wvel_del2            =   4.2790129771647E-08
(PID.TID 0000.0001) %MON dynstat_theta_max            =   1.2000000000000E+00
(PID.TID 0000.0001) %MON dynstat_theta_min            =  -1.0000000000000E+00
(PID.TID 0000.0001) %MON dynstat_theta_mean           =   5.6537312988210E-01
(PID.TID 0000.0001) %MON dynstat_theta_sd             =   8.4903704375455E-01
(PID.TID 0000.0001) %MON dynstat_theta_del2           =   9.9586863610618E-07
(PID.TID 0000.0001) %MON dynstat_salt_max             =   3.4700000000000E+01
(PID.TID 0000.0001) %MON dynstat_salt_min             =   3.4000000000000E+01
(PID.TID 0000.0001) %MON dynstat_salt_mean            =   3.4498062892090E+01
(PID.TID 0000.0001) %MON dynstat_salt_sd              =   2.7014865404814E-01
(PID.TID 0000.0001) %MON dynstat_salt_del2            =   3.8218113997407E-07
(PID.TID 0000.0001) %MON advcfl_uvel_max              =   7.0288730020209E-04
(PID.TID 0000.0001) %MON advcfl_vvel_max              =   6.6224031269611E-04
(PID.TID 0000.0001) %MON advcfl_wvel_max              =   1.2886674955019E-03
(PID.TID 0000.0001) %MON advcfl_W_hf_max              =   1.2886674955019E-03
(PID.TID 0000.0001) %MON pe_b_mean                    =  -6.8267701385948E-01
(PID.TID 0000.0001) %MON ke_max                       =   1.5302299455308E-05
(PID.TID 0000.0001) %MON ke_mean                      =   2.9447652976566E-08
(PID.TID 0000.0001) %MON ke_vol                       =   4.6182924107724E+12
(PID.TID 0000.0001) // =======================================================
(PID.TID 0000.0001) // End MONITOR dynamic field statistics
(PID.TID 0000.0001) // =======================================================
(PID.TID 0000.0001) // =======================================================
(PID.TID 0000.0001) // Begin OBCS MONITOR field statistics
(PID.TID 0000.0001) // =======================================================
(PID.TID 0000.0001) %MON obc_N_vVel_max               =  -7.0829090875835E-08
(PID.TID 0000.0001) %MON obc_N_vVel_min               =  -7.0829090875837E-08
(PID.TID 0000.0001) %MON obc_N_vVel_mean              =  -7.0829090875835E-08
(PID.TID 0000.0001) %MON obc_N_vVel_sd                =   1.6353098998964E-14
(PID.TID 0000.0001) %MON obc_N_vVel_Int               =  -4.6747199978051E+00
(PID.TID 0000.0001) // =======================================================
(PID.TID 0000.0001) // End OBCS MONITOR field statistics
(PID.TID 0000.0001) // =======================================================
 cg2d: Sum(rhs),rhsMax =   3.01142479758975E+00  4.53049194632061E+02
(PID.TID 0000.0001)      cg2d_init_res =   1.32815345770773E-06
(PID.TID 0000.0001)      cg2d_iters(min,last) =      -1      71
(PID.TID 0000.0001)      cg2d_last_res =   7.78523638157548E-12
(PID.TID 0000.0001) // =======================================================
(PID.TID 0000.0001) // Begin MONITOR dynamic field statistics
(PID.TID 0000.0001) // =======================================================
(PID.TID 0000.0001) %MON time_tsnumber                =                   604
(PID.TID 0000.0001) %MON time_secondsf                =   6.0400000000000E+04
(PID.TID 0000.0001) %MON dynstat_eta_max              =   5.7971464227942E+00
(PID.TID 0000.0001) %MON dynstat_eta_min              =  -1.4175491205352E+01
(PID.TID 0000.0001) %MON dynstat_eta_mean             =  -2.5265251467464E+00
(PID.TID 0000.0001) %MON dynstat_eta_sd               =   4.9418032387787E+00
(PID.TID 0000.0001) %MON dynstat_eta_del2             =   1.9058140812060E-01
(PID.TID 0000.0001) %MON dynstat_uvel_max             =   2.5122646446771E-03
(PID.TID 0000.0001) %MON dynstat_uvel_min             =  -7.0503775286985E-03
(PID.TID 0000.0001) %MON dynstat_uvel_mean            =  -1.5099318381685E-09
(PID.TID 0000.0001) %MON dynstat_uvel_sd              =   2.0808848712311E-04
(PID.TID 0000.0001) %MON dynstat_uvel_del2            =   3.6276482825396E-07
(PID.TID 0000.0001) %MON dynstat_vvel_max             =   6.6374454877198E-03
(PID.TID 0000.0001) %MON dynstat_vvel_min             =  -1.9758858804275E-03
(PID.TID 0000.0001) %MON dynstat_vvel_mean            =  -6.0430803867935E-08
(PID.TID 0000.0001) %MON dynstat_vvel_sd              =   1.2899165290273E-04
(PID.TID 0000.0001) %MON dynstat_vvel_del2            =   3.5006314444729E-07
(PID.TID 0000.0001) %MON dynstat_wvel_max             =   2.5189724096073E-04
(PID.TID 0000.0001) %MON dynstat_wvel_min             =  -2.5849135786595E-04
(PID.TID 0000.0001) %MON dynstat_wvel_mean            =   1.5277605542356E-10
(PID.TID 0000.0001) %MON dynstat_wvel_sd              =   1.0229190073580E-05
(PID.TID 0000.0001) %MON dynstat_wvel_del2            =   4.3816124089342E-08
(PID.TID 0000.0001) %MON dynstat_theta_max            =   1.2000000000000E+00
(PID.TID 0000.0001) %MON dynstat_theta_min            =  -1.0000000000000E+00
(PID.TID 0000.0001) %MON dynstat_theta_mean           =   5.6537285780406E-01
(PID.TID 0000.0001) %MON dynstat_theta_sd             =   8.4903695774456E-01
(PID.TID 0000.0001) %MON dynstat_theta_del2           =   9.9666288940592E-07
(PID.TID 0000.0001) %MON dynstat_salt_max             =   3.4700000000000E+01
(PID.TID 0000.0001) %MON dynstat_salt_min             =   3.4000000000000E+01
(PID.TID 0000.0001) %MON dynstat_salt_mean            =   3.4498062783938E+01
(PID.TID 0000.0001) %MON dynstat_salt_sd              =   2.7014862454090E-01
(PID.TID 0000.0001) %MON dynstat_salt_del2            =   3.8265909379388E-07
(PID.TID 0000.0001) %MON advcfl_uvel_max              =   7.0503775286985E-04
(PID.TID 0000.0001) %MON advcfl_vvel_max              =   6.6374454877198E-04
(PID.TID 0000.0001) %MON advcfl_wvel_max              =   1.2924567893298E-03
(PID.TID 0000.0001) %MON advcfl_W_hf_max              =   1.2924567893298E-03
(PID.TID 0000.0001) %MON pe_b_mean                    =  -6.8267631996973E-01
(PID.TID 0000.0001) %MON ke_max                       =   1.5394173257788E-05
(PID.TID 0000.0001) %MON ke_mean                      =   2.9562579305853E-08
(PID.TID 0000.0001) %MON ke_vol                       =   4.6182924256909E+12
(PID.TID 0000.0001) // =======================================================
(PID.TID 0000.0001) // End MONITOR dynamic field statistics
(PID.TID 0000.0001) // =======================================================
(PID.TID 0000.0001) // =======================================================
(PID.TID 0000.0001) // Begin OBCS MONITOR field statistics
(PID.TID 0000.0001) // =======================================================
(PID.TID 0000.0001) %MON obc_N_vVel_max               =  -7.1376211394768E-08
(PID.TID 0000.0001) %MON obc_N_vVel_min               =  -7.1376211394769E-08
(PID.TID 0000.0001) %MON obc_N_vVel_mean              =  -7.1376211394769E-08
(PID.TID 0000.0001) %MON obc_N_vVel_sd                =  -2.8477878678479E-28
(PID.TID 0000.0001) %MON obc_N_vVel_Int               =  -4.7108299520548E+00
(PID.TID 0000.0001) // =======================================================
(PID.TID 0000.0001) // End OBCS MONITOR field statistics
(PID.TID 0000.0001) // =======================================================
 cg2d: Sum(rhs),rhsMax =   3.01142185958804E+00  4.53049185145106E+02
(PID.TID 0000.0001)      cg2d_init_res =   1.34326054686100E-06
(PID.TID 0000.0001)      cg2d_iters(min,last) =      -1      71
(PID.TID 0000.0001)      cg2d_last_res =   7.80243380026988E-12
(PID.TID 0000.0001) // =======================================================
(PID.TID 0000.0001) // Begin MONITOR dynamic field statistics
(PID.TID 0000.0001) // =======================================================
(PID.TID 0000.0001) %MON time_tsnumber                =                   605
(PID.TID 0000.0001) %MON time_secondsf                =   6.0500000000000E+04
(PID.TID 0000.0001) %MON dynstat_eta_max              =   5.7971492263463E+00
(PID.TID 0000.0001) %MON dynstat_eta_min              =  -1.4175486067164E+01
(PID.TID 0000.0001) %MON dynstat_eta_mean             =  -2.5265226289158E+00
(PID.TID 0000.0001) %MON dynstat_eta_sd               =   4.9418024529594E+00
(PID.TID 0000.0001) %MON dynstat_eta_del2             =   1.9058141254980E-01
(PID.TID 0000.0001) %MON dynstat_uvel_max             =   2.5164853430955E-03
(PID.TID 0000.0001) %MON dynstat_uvel_min             =  -7.0719349946806E-03
(PID.TID 0000.0001) %MON dynstat_uvel_mean            =  -1.5083486280939E-09
(PID.TID 0000.0001) %MON dynstat_uvel_sd              =   2.0848348521574E-04
(PID.TID 0000.0001) %MON dynstat_uvel_del2            =   3.6345042591475E-07
(PID.TID 0000.0001) %MON dynstat_vvel_max             =   6.6525096584229E-03
(PID.TID 0000.0001) %MON dynstat_vvel_min             =  -1.9825792360759E-03
(PID.TID 0000.0001) %MON dynstat_vvel_mean            =  -6.0883445653780E-08
(PID.TID 0000.0001) %MON dynstat_vvel_sd              =   1.2927915428439E-04
(PID.TID 0000.0001) %MON dynstat_vvel_del2            =   3.5129779696797E-07
(PID.TID 0000.0001) %MON dynstat_wvel_max             =   2.5286187102540E-04
(PID.TID 0000.0001) %MON dynstat_wvel_min             =  -2.5924995506195E-04
(PID.TID 0000.0001) %MON dynstat_wvel_mean            =   1.5349983018739E-10
(PID.TID 0000.0001) %MON dynstat_wvel_sd              =   1.0544657639218E-05
(PID.TID 0000.0001) %MON dynstat_wvel_del2            =   4.5096913645318E-08
(PID.TID 0000.0001) %MON dynstat_theta_max            =   1.2000000000000E+00
(PID.TID 0000.0001) %MON dynstat_theta_min            =  -1.0000000000000E+00
(PID.TID 0000.0001) %MON dynstat_theta_mean           =   5.6537258539875E-01
(PID.TID 0000.0001) %MON dynstat_theta_sd             =   8.4903687150565E-01
(PID.TID 0000.0001) %MON dynstat_theta_del2           =   9.9735193265366E-07
(PID.TID 0000.0001) %MON dynstat_salt_max             =   3.4700000000000E+01
(PID.TID 0000.0001) %MON dynstat_salt_min             =   3.4000000000000E+01
(PID.TID 0000.0001) %MON dynstat_salt_mean            =   3.4498062675658E+01
(PID.TID 0000.0001) %MON dynstat_salt_sd              =   2.7014859494583E-01
(PID.TID 0000.0001) %MON dynstat_salt_del2            =   3.8310979305981E-07
(PID.TID 0000.0001) %MON advcfl_uvel_max              =   7.0719349946806E-04
(PID.TID 0000.0001) %MON advcfl_vvel_max              =   6.6525096584229E-04
(PID.TID 0000.0001) %MON advcfl_wvel_max              =   1.2962497753097E-03
(PID.TID 0000.0001) %MON advcfl_W_hf_max              =   1.2962497753097E-03
(PID.TID 0000.0001) %MON pe_b_mean                    =  -6.8267562514825E-01
(PID.TID 0000.0001) %MON ke_max                       =   1.5486563709475E-05
(PID.TID 0000.0001) %MON ke_mean                      =   2.9680430736486E-08
(PID.TID 0000.0001) %MON ke_vol                       =   4.6182924406283E+12
(PID.TID 0000.0001) // =======================================================
(PID.TID 0000.0001) // End MONITOR dynamic field statistics
(PID.TID 0000.0001) // =======================================================
(PID.TID 0000.0001) // =======================================================
(PID.TID 0000.0001) // Begin OBCS MONITOR field statistics
(PID.TID 0000.0001) // =======================================================
(PID.TID 0000.0001) %MON obc_N_vVel_max               =  -7.1851343322810E-08
(PID.TID 0000.0001) %MON obc_N_vVel_min               =  -7.1851343322813E-08
(PID.TID 0000.0001) %MON obc_N_vVel_mean              =  -7.1851343322813E-08
(PID.TID 0000.0001) %MON obc_N_vVel_sd                =  -5.8533479167399E-28
(PID.TID 0000.0001) %MON obc_N_vVel_Int               =  -4.7421886593056E+00
(PID.TID 0000.0001) // =======================================================
(PID.TID 0000.0001) // End OBCS MONITOR field statistics
(PID.TID 0000.0001) // =======================================================
 cg2d: Sum(rhs),rhsMax =   3.01141891819318E+00  4.53049175626772E+02
(PID.TID 0000.0001)      cg2d_init_res =   1.36063539144045E-06
(PID.TID 0000.0001)      cg2d_iters(min,last) =      -1      71
(PID.TID 0000.0001)      cg2d_last_res =   7.82286064467287E-12
(PID.TID 0000.0001) // =======================================================
(PID.TID 0000.0001) // Begin MONITOR dynamic field statistics
(PID.TID 0000.0001) // =======================================================
(PID.TID 0000.0001) %MON time_tsnumber                =                   606
(PID.TID 0000.0001) %MON time_secondsf                =   6.0600000000000E+04
(PID.TID 0000.0001) %MON dynstat_eta_max              =   5.7971520332408E+00
(PID.TID 0000.0001) %MON dynstat_eta_min              =  -1.4175480937886E+01
(PID.TID 0000.0001) %MON dynstat_eta_mean             =  -2.5265201080635E+00
(PID.TID 0000.0001) %MON dynstat_eta_sd               =   4.9418016663230E+00
(PID.TID 0000.0001) %MON dynstat_eta_del2             =   1.9058141698636E-01
(PID.TID 0000.0001) %MON dynstat_uvel_max             =   2.5207146444242E-03
(PID.TID 0000.0001) %MON dynstat_uvel_min             =  -7.0935455279750E-03
(PID.TID 0000.0001) %MON dynstat_uvel_mean            =  -1.5073592788347E-09
(PID.TID 0000.0001) %MON dynstat_uvel_sd              =   2.0887968977728E-04
(PID.TID 0000.0001) %MON dynstat_uvel_del2            =   3.6413817090125E-07
(PID.TID 0000.0001) %MON dynstat_vvel_max             =   6.6675957143481E-03
(PID.TID 0000.0001) %MON dynstat_vvel_min             =  -1.9892822300349E-03
(PID.TID 0000.0001) %MON dynstat_vvel_mean            =  -6.1232715441160E-08
(PID.TID 0000.0001) %MON dynstat_vvel_sd              =   1.2957795500988E-04
(PID.TID 0000.0001) %MON dynstat_vvel_del2            =   3.5258567088072E-07
(PID.TID 0000.0001) %MON dynstat_wvel_max             =   2.5382856524918E-04
(PID.TID 0000.0001) %MON dynstat_wvel_min             =  -2.6000929193122E-04
(PID.TID 0000.0001) %MON dynstat_wvel_mean            =   1.5431999818105E-10
(PID.TID 0000.0001) %MON dynstat_wvel_sd              =   1.0876393917345E-05
(PID.TID 0000.0001) %MON dynstat_wvel_del2            =   4.6529958597892E-08
(PID.TID 0000.0001) %MON dynstat_theta_max            =   1.2000000000000E+00
(PID.TID 0000.0001) %MON dynstat_theta_min            =  -1.0000000000000E+00
(PID.TID 0000.0001) %MON dynstat_theta_mean           =   5.6537231264861E-01
(PID.TID 0000.0001) %MON dynstat_theta_sd             =   8.4903678504923E-01
(PID.TID 0000.0001) %MON dynstat_theta_del2           =   9.9799113993539E-07
(PID.TID 0000.0001) %MON dynstat_salt_max             =   3.4700000000000E+01
(PID.TID 0000.0001) %MON dynstat_salt_min             =   3.4000000000000E+01
(PID.TID 0000.0001) %MON dynstat_salt_mean            =   3.4498062567245E+01
(PID.TID 0000.0001) %MON dynstat_salt_sd              =   2.7014856526610E-01
(PID.TID 0000.0001) %MON dynstat_salt_del2            =   3.8354787084961E-07
(PID.TID 0000.0001) %MON advcfl_uvel_max              =   7.0935455279750E-04
(PID.TID 0000.0001) %MON advcfl_vvel_max              =   6.6675957143481E-04
(PID.TID 0000.0001) %MON advcfl_wvel_max              =   1.3000464596561E-03
(PID.TID 0000.0001) %MON advcfl_W_hf_max              =   1.3000464596561E-03
(PID.TID 0000.0001) %MON pe_b_mean                    =  -6.8267492941541E-01
(PID.TID 0000.0001) %MON ke_max                       =   1.5579473506828E-05
(PID.TID 0000.0001) %MON ke_mean                      =   2.9800229208241E-08
(PID.TID 0000.0001) %MON ke_vol                       =   4.6182924555842E+12
(PID.TID 0000.0001) // =======================================================
(PID.TID 0000.0001) // End MONITOR dynamic field statistics
(PID.TID 0000.0001) // =======================================================
(PID.TID 0000.0001) // =======================================================
(PID.TID 0000.0001) // Begin OBCS MONITOR field statistics
(PID.TID 0000.0001) // =======================================================
(PID.TID 0000.0001) %MON obc_N_vVel_max               =  -7.2240419669728E-08
(PID.TID 0000.0001) %MON obc_N_vVel_min               =  -7.2240419669731E-08
(PID.TID 0000.0001) %MON obc_N_vVel_mean              =  -7.2240419669731E-08
(PID.TID 0000.0001) %MON obc_N_vVel_sd                =  -3.0528917032053E-28
(PID.TID 0000.0001) %MON obc_N_vVel_Int               =  -4.7678676982023E+00
(PID.TID 0000.0001) // =======================================================
(PID.TID 0000.0001) // End OBCS MONITOR field statistics
(PID.TID 0000.0001) // =======================================================
 cg2d: Sum(rhs),rhsMax =   3.01141597352268E+00  4.53049166077675E+02
(PID.TID 0000.0001)      cg2d_init_res =   1.37913827822865E-06
(PID.TID 0000.0001)      cg2d_iters(min,last) =      -1      71
(PID.TID 0000.0001)      cg2d_last_res =   7.84603905012301E-12
(PID.TID 0000.0001) // =======================================================
(PID.TID 0000.0001) // Begin MONITOR dynamic field statistics
(PID.TID 0000.0001) // =======================================================
(PID.TID 0000.0001) %MON time_tsnumber                =                   607
(PID.TID 0000.0001) %MON time_secondsf                =   6.0700000000000E+04
(PID.TID 0000.0001) %MON dynstat_eta_max              =   5.7971548432111E+00
(PID.TID 0000.0001) %MON dynstat_eta_min              =  -1.4175475817760E+01
(PID.TID 0000.0001) %MON dynstat_eta_mean             =  -2.5265175842916E+00
(PID.TID 0000.0001) %MON dynstat_eta_sd               =   4.9418008789107E+00
(PID.TID 0000.0001) %MON dynstat_eta_del2             =   1.9058142143028E-01
(PID.TID 0000.0001) %MON dynstat_uvel_max             =   2.5249525262367E-03
(PID.TID 0000.0001) %MON dynstat_uvel_min             =  -7.1152092561686E-03
(PID.TID 0000.0001) %MON dynstat_uvel_mean            =  -1.5068075007425E-09
(PID.TID 0000.0001) %MON dynstat_uvel_sd              =   2.0927713963665E-04
(PID.TID 0000.0001) %MON dynstat_uvel_del2            =   3.6482820546996E-07
(PID.TID 0000.0001) %MON dynstat_vvel_max             =   6.6827037297814E-03
(PID.TID 0000.0001) %MON dynstat_vvel_min             =  -1.9959948700592E-03
(PID.TID 0000.0001) %MON dynstat_vvel_mean            =  -6.1468535775390E-08
(PID.TID 0000.0001) %MON dynstat_vvel_sd              =   1.2987983983116E-04
(PID.TID 0000.0001) %MON dynstat_vvel_del2            =   3.5388180483317E-07
(PID.TID 0000.0001) %MON dynstat_wvel_max             =   2.5479732855795E-04
(PID.TID 0000.0001) %MON dynstat_wvel_min             =  -2.6076936976897E-04
(PID.TID 0000.0001) %MON dynstat_wvel_mean            =   1.5521345328210E-10
(PID.TID 0000.0001) %MON dynstat_wvel_sd              =   1.1202548850661E-05
(PID.TID 0000.0001) %MON dynstat_wvel_del2            =   4.8010952207133E-08
(PID.TID 0000.0001) %MON dynstat_theta_max            =   1.2000000000000E+00
(PID.TID 0000.0001) %MON dynstat_theta_min            =  -1.0000000000000E+00
(PID.TID 0000.0001) %MON dynstat_theta_mean           =   5.6537203953694E-01
(PID.TID 0000.0001) %MON dynstat_theta_sd             =   8.4903669839542E-01
(PID.TID 0000.0001) %MON dynstat_theta_del2           =   9.9864036465284E-07
(PID.TID 0000.0001) %MON dynstat_salt_max             =   3.4700000000000E+01
(PID.TID 0000.0001) %MON dynstat_salt_min             =   3.4000000000000E+01
(PID.TID 0000.0001) %MON dynstat_salt_mean            =   3.4498062458693E+01
(PID.TID 0000.0001) %MON dynstat_salt_sd              =   2.7014853550850E-01
(PID.TID 0000.0001) %MON dynstat_salt_del2            =   3.8398910759961E-07
(PID.TID 0000.0001) %MON advcfl_uvel_max              =   7.1152092561686E-04
(PID.TID 0000.0001) %MON advcfl_vvel_max              =   6.6827037297814E-04
(PID.TID 0000.0001) %MON advcfl_wvel_max              =   1.3038468488448E-03
(PID.TID 0000.0001) %MON advcfl_W_hf_max              =   1.3038468488448E-03
(PID.TID 0000.0001) %MON pe_b_mean                    =  -6.8267423279367E-01
(PID.TID 0000.0001) %MON ke_max                       =   1.5672905355124E-05
(PID.TID 0000.0001) %MON ke_mean                      =   2.9920927235848E-08
(PID.TID 0000.0001) %MON ke_vol                       =   4.6182924705581E+12
(PID.TID 0000.0001) // =======================================================
(PID.TID 0000.0001) // End MONITOR dynamic field statistics
(PID.TID 0000.0001) // =======================================================
(PID.TID 0000.0001) // =======================================================
(PID.TID 0000.0001) // Begin OBCS MONITOR field statistics
(PID.TID 0000.0001) // =======================================================
(PID.TID 0000.0001) %MON obc_N_vVel_max               =  -7.2532284759597E-08
(PID.TID 0000.0001) %MON obc_N_vVel_min               =  -7.2532284759598E-08
(PID.TID 0000.0001) %MON obc_N_vVel_mean              =  -7.2532284759598E-08
(PID.TID 0000.0001) %MON obc_N_vVel_sd                =  -2.8556764769001E-28
(PID.TID 0000.0001) %MON obc_N_vVel_Int               =  -4.7871307941335E+00
(PID.TID 0000.0001) // =======================================================
(PID.TID 0000.0001) // End OBCS MONITOR field statistics
(PID.TID 0000.0001) // =======================================================
 cg2d: Sum(rhs),rhsMax =   3.01141302570249E+00  4.53049156498660E+02
(PID.TID 0000.0001)      cg2d_init_res =   1.39760042750128E-06
(PID.TID 0000.0001)      cg2d_iters(min,last) =      -1      71
(PID.TID 0000.0001)      cg2d_last_res =   7.87128247490961E-12
(PID.TID 0000.0001) // =======================================================
(PID.TID 0000.0001) // Begin MONITOR dynamic field statistics
(PID.TID 0000.0001) // =======================================================
(PID.TID 0000.0001) %MON time_tsnumber                =                   608
(PID.TID 0000.0001) %MON time_secondsf                =   6.0800000000000E+04
(PID.TID 0000.0001) %MON dynstat_eta_max              =   5.7971576559739E+00
(PID.TID 0000.0001) %MON dynstat_eta_min              =  -1.4175470707036E+01
(PID.TID 0000.0001) %MON dynstat_eta_mean             =  -2.5265150577103E+00
(PID.TID 0000.0001) %MON dynstat_eta_sd               =   4.9418000907632E+00
(PID.TID 0000.0001) %MON dynstat_eta_del2             =   1.9058142588150E-01
(PID.TID 0000.0001) %MON dynstat_uvel_max             =   2.5291989654459E-03
(PID.TID 0000.0001) %MON dynstat_uvel_min             =  -7.1369263064032E-03
(PID.TID 0000.0001) %MON dynstat_uvel_mean            =  -1.5065355128786E-09
(PID.TID 0000.0001) %MON dynstat_uvel_sd              =   2.0967587485165E-04
(PID.TID 0000.0001) %MON dynstat_uvel_del2            =   3.6552066850746E-07
(PID.TID 0000.0001) %MON dynstat_vvel_max             =   6.6978337778367E-03
(PID.TID 0000.0001) %MON dynstat_vvel_min             =  -2.0027171645509E-03
(PID.TID 0000.0001) %MON dynstat_vvel_mean            =  -6.1584534871535E-08
(PID.TID 0000.0001) %MON dynstat_vvel_sd              =   1.3017663758674E-04
(PID.TID 0000.0001) %MON dynstat_vvel_del2            =   3.5514134757655E-07
(PID.TID 0000.0001) %MON dynstat_wvel_max             =   2.5576816589635E-04
(PID.TID 0000.0001) %MON dynstat_wvel_min             =  -2.6153018991169E-04
(PID.TID 0000.0001) %MON dynstat_wvel_mean            =   1.5615525018716E-10
(PID.TID 0000.0001) %MON dynstat_wvel_sd              =   1.1503630701952E-05
(PID.TID 0000.0001) %MON dynstat_wvel_del2            =   4.9441802911519E-08
(PID.TID 0000.0001) %MON dynstat_theta_max            =   1.2000000000000E+00
(PID.TID 0000.0001) %MON dynstat_theta_min            =  -1.0000000000000E+00
(PID.TID 0000.0001) %MON dynstat_theta_mean           =   5.6537176604808E-01
(PID.TID 0000.0001) %MON dynstat_theta_sd             =   8.4903661155562E-01
(PID.TID 0000.0001) %MON dynstat_theta_del2           =   9.9936007681376E-07
(PID.TID 0000.0001) %MON dynstat_salt_max             =   3.4700000000000E+01
(PID.TID 0000.0001) %MON dynstat_salt_min             =   3.4000000000000E+01
(PID.TID 0000.0001) %MON dynstat_salt_mean            =   3.4498062349997E+01
(PID.TID 0000.0001) %MON dynstat_salt_sd              =   2.7014850567650E-01
(PID.TID 0000.0001) %MON dynstat_salt_del2            =   3.8444968127020E-07
(PID.TID 0000.0001) %MON advcfl_uvel_max              =   7.1369263064032E-04
(PID.TID 0000.0001) %MON advcfl_vvel_max              =   6.6978337778367E-04
(PID.TID 0000.0001) %MON advcfl_wvel_max              =   1.3076509495585E-03
(PID.TID 0000.0001) %MON advcfl_W_hf_max              =   1.3076509495585E-03
(PID.TID 0000.0001) %MON pe_b_mean                    =  -6.8267353530653E-01
(PID.TID 0000.0001) %MON ke_max                       =   1.5766861968090E-05
(PID.TID 0000.0001) %MON ke_mean                      =   3.0041473617742E-08
(PID.TID 0000.0001) %MON ke_vol                       =   4.6182924855493E+12
(PID.TID 0000.0001) // =======================================================
(PID.TID 0000.0001) // End MONITOR dynamic field statistics
(PID.TID 0000.0001) // =======================================================
(PID.TID 0000.0001) // =======================================================
(PID.TID 0000.0001) // Begin OBCS MONITOR field statistics
(PID.TID 0000.0001) // =======================================================
(PID.TID 0000.0001) %MON obc_N_vVel_max               =  -7.2719003876955E-08
(PID.TID 0000.0001) %MON obc_N_vVel_min               =  -7.2719003876958E-08
(PID.TID 0000.0001) %MON obc_N_vVel_mean              =  -7.2719003876955E-08
(PID.TID 0000.0001) %MON obc_N_vVel_sd                =   2.1111760027290E-14
(PID.TID 0000.0001) %MON obc_N_vVel_Int               =  -4.7994542558791E+00
(PID.TID 0000.0001) // =======================================================
(PID.TID 0000.0001) // End OBCS MONITOR field statistics
(PID.TID 0000.0001) // =======================================================
 cg2d: Sum(rhs),rhsMax =   3.01141007486332E+00  4.53049146890793E+02
(PID.TID 0000.0001)      cg2d_init_res =   1.41490528922175E-06
(PID.TID 0000.0001)      cg2d_iters(min,last) =      -1      71
(PID.TID 0000.0001)      cg2d_last_res =   7.89799993599058E-12
(PID.TID 0000.0001) // =======================================================
(PID.TID 0000.0001) // Begin MONITOR dynamic field statistics
(PID.TID 0000.0001) // =======================================================
(PID.TID 0000.0001) %MON time_tsnumber                =                   609
(PID.TID 0000.0001) %MON time_secondsf                =   6.0900000000000E+04
(PID.TID 0000.0001) %MON dynstat_eta_max              =   5.7971604712229E+00
(PID.TID 0000.0001) %MON dynstat_eta_min              =  -1.4175465605969E+01
(PID.TID 0000.0001) %MON dynstat_eta_mean             =  -2.5265125284355E+00
(PID.TID 0000.0001) %MON dynstat_eta_sd               =   4.9417993019208E+00
(PID.TID 0000.0001) %MON dynstat_eta_del2             =   1.9058143034004E-01
(PID.TID 0000.0001) %MON dynstat_uvel_max             =   2.5334539383923E-03
(PID.TID 0000.0001) %MON dynstat_uvel_min             =  -7.1586968054076E-03
(PID.TID 0000.0001) %MON dynstat_uvel_mean            =  -1.5063882035389E-09
(PID.TID 0000.0001) %MON dynstat_uvel_sd              =   2.1007593557226E-04
(PID.TID 0000.0001) %MON dynstat_uvel_del2            =   3.6621568819420E-07
(PID.TID 0000.0001) %MON dynstat_vvel_max             =   6.7129859304371E-03
(PID.TID 0000.0001) %MON dynstat_vvel_min             =  -2.0094491225926E-03
(PID.TID 0000.0001) %MON dynstat_vvel_mean            =  -6.1578215909704E-08
(PID.TID 0000.0001) %MON dynstat_vvel_sd              =   1.3046072357873E-04
(PID.TID 0000.0001) %MON dynstat_vvel_del2            =   3.5632238775320E-07
(PID.TID 0000.0001) %MON dynstat_wvel_max             =   2.5674108223329E-04
(PID.TID 0000.0001) %MON dynstat_wvel_min             =  -2.6229175375168E-04
(PID.TID 0000.0001) %MON dynstat_wvel_mean            =   1.5711851501521E-10
(PID.TID 0000.0001) %MON dynstat_wvel_sd              =   1.1763170120022E-05
(PID.TID 0000.0001) %MON dynstat_wvel_del2            =   5.0735645395513E-08
(PID.TID 0000.0001) %MON dynstat_theta_max            =   1.2000000000000E+00
(PID.TID 0000.0001) %MON dynstat_theta_min            =  -1.0000000000000E+00
(PID.TID 0000.0001) %MON dynstat_theta_mean           =   5.6537149216762E-01
(PID.TID 0000.0001) %MON dynstat_theta_sd             =   8.4903652454295E-01
(PID.TID 0000.0001) %MON dynstat_theta_del2           =   1.0002073612370E-06
(PID.TID 0000.0001) %MON dynstat_salt_max             =   3.4700000000000E+01
(PID.TID 0000.0001) %MON dynstat_salt_min             =   3.4000000000000E+01
(PID.TID 0000.0001) %MON dynstat_salt_mean            =   3.4498062241153E+01
(PID.TID 0000.0001) %MON dynstat_salt_sd              =   2.7014847577414E-01
(PID.TID 0000.0001) %MON dynstat_salt_del2            =   3.8494430628021E-07
(PID.TID 0000.0001) %MON advcfl_uvel_max              =   7.1586968054076E-04
(PID.TID 0000.0001) %MON advcfl_vvel_max              =   6.7129859304371E-04
(PID.TID 0000.0001) %MON advcfl_wvel_max              =   1.3114587687584E-03
(PID.TID 0000.0001) %MON advcfl_W_hf_max              =   1.3114587687584E-03
(PID.TID 0000.0001) %MON pe_b_mean                    =  -6.8267283697777E-01
(PID.TID 0000.0001) %MON ke_max                       =   1.5861346068175E-05
(PID.TID 0000.0001) %MON ke_mean                      =   3.0160878889479E-08
(PID.TID 0000.0001) %MON ke_vol                       =   4.6182925005572E+12
(PID.TID 0000.0001) // =======================================================
(PID.TID 0000.0001) // End MONITOR dynamic field statistics
(PID.TID 0000.0001) // =======================================================
(PID.TID 0000.0001) // =======================================================
(PID.TID 0000.0001) // Begin OBCS MONITOR field statistics
(PID.TID 0000.0001) // =======================================================
(PID.TID 0000.0001) %MON obc_N_vVel_max               =  -7.2796021646127E-08
(PID.TID 0000.0001) %MON obc_N_vVel_min               =  -7.2796021646128E-08
(PID.TID 0000.0001) %MON obc_N_vVel_mean              =  -7.2796021646128E-08
(PID.TID 0000.0001) %MON obc_N_vVel_sd                =  -2.7136815139603E-28
(PID.TID 0000.0001) %MON obc_N_vVel_Int               =  -4.8045374286445E+00
(PID.TID 0000.0001) // =======================================================
(PID.TID 0000.0001) // End OBCS MONITOR field statistics
(PID.TID 0000.0001) // =======================================================
 cg2d: Sum(rhs),rhsMax =   3.01140712113452E+00  4.53049137255378E+02
(PID.TID 0000.0001)      cg2d_init_res =   1.43000176784615E-06
(PID.TID 0000.0001)      cg2d_iters(min,last) =      -1      71
(PID.TID 0000.0001)      cg2d_last_res =   7.92476178887275E-12
(PID.TID 0000.0001) // =======================================================
(PID.TID 0000.0001) // Begin MONITOR dynamic field statistics
(PID.TID 0000.0001) // =======================================================
(PID.TID 0000.0001) %MON time_tsnumber                =                   610
(PID.TID 0000.0001) %MON time_secondsf                =   6.1000000000000E+04
(PID.TID 0000.0001) %MON dynstat_eta_max              =   5.7971632886683E+00
(PID.TID 0000.0001) %MON dynstat_eta_min              =  -1.4175460514805E+01
(PID.TID 0000.0001) %MON dynstat_eta_mean             =  -2.5265099965828E+00
(PID.TID 0000.0001) %MON dynstat_eta_sd               =   4.9417985124183E+00
(PID.TID 0000.0001) %MON dynstat_eta_del2             =   1.9058143480581E-01
(PID.TID 0000.0001) %MON dynstat_uvel_max             =   2.5377174209513E-03
(PID.TID 0000.0001) %MON dynstat_uvel_min             =  -7.1805208795066E-03
(PID.TID 0000.0001) %MON dynstat_uvel_mean            =  -1.5062046309513E-09
(PID.TID 0000.0001) %MON dynstat_uvel_sd              =   2.1047736069392E-04
(PID.TID 0000.0001) %MON dynstat_uvel_del2            =   3.6691337488735E-07
(PID.TID 0000.0001) %MON dynstat_vvel_max             =   6.7281602583151E-03
(PID.TID 0000.0001) %MON dynstat_vvel_min             =  -2.0161907539453E-03
(PID.TID 0000.0001) %MON dynstat_vvel_mean            =  -6.1450951504894E-08
(PID.TID 0000.0001) %MON dynstat_vvel_sd              =   1.3072547701883E-04
(PID.TID 0000.0001) %MON dynstat_vvel_del2            =   3.5738852993649E-07
(PID.TID 0000.0001) %MON dynstat_wvel_max             =   2.5771608255761E-04
(PID.TID 0000.0001) %MON dynstat_wvel_min             =  -2.6305406272072E-04
(PID.TID 0000.0001) %MON dynstat_wvel_mean            =   1.5807695028016E-10
(PID.TID 0000.0001) %MON dynstat_wvel_sd              =   1.1968033891298E-05
(PID.TID 0000.0001) %MON dynstat_wvel_del2            =   5.1819577559297E-08
(PID.TID 0000.0001) %MON dynstat_theta_max            =   1.2000000000000E+00
(PID.TID 0000.0001) %MON dynstat_theta_min            =  -1.0000000000000E+00
(PID.TID 0000.0001) %MON dynstat_theta_mean           =   5.6537121788262E-01
(PID.TID 0000.0001) %MON dynstat_theta_sd             =   8.4903643737340E-01
(PID.TID 0000.0001) %MON dynstat_theta_del2           =   1.0012323994892E-06
(PID.TID 0000.0001) %MON dynstat_salt_max             =   3.4700000000000E+01
(PID.TID 0000.0001) %MON dynstat_salt_min             =   3.4000000000000E+01
(PID.TID 0000.0001) %MON dynstat_salt_mean            =   3.4498062132156E+01
(PID.TID 0000.0001) %MON dynstat_salt_sd              =   2.7014844580666E-01
(PID.TID 0000.0001) %MON dynstat_salt_del2            =   3.8548615398914E-07
(PID.TID 0000.0001) %MON advcfl_uvel_max              =   7.1805208795066E-04
(PID.TID 0000.0001) %MON advcfl_vvel_max              =   6.7281602583151E-04
(PID.TID 0000.0001) %MON advcfl_wvel_max              =   1.3152703136036E-03
(PID.TID 0000.0001) %MON advcfl_W_hf_max              =   1.3152703136036E-03
(PID.TID 0000.0001) %MON pe_b_mean                    =  -6.8267213783038E-01
(PID.TID 0000.0001) %MON ke_max                       =   1.5956360386474E-05
(PID.TID 0000.0001) %MON ke_mean                      =   3.0278276312727E-08
(PID.TID 0000.0001) %MON ke_vol                       =   4.6182925155811E+12
(PID.TID 0000.0001) // =======================================================
(PID.TID 0000.0001) // End MONITOR dynamic field statistics
(PID.TID 0000.0001) // =======================================================
(PID.TID 0000.0001) // =======================================================
(PID.TID 0000.0001) // Begin OBCS MONITOR field statistics
(PID.TID 0000.0001) // =======================================================
(PID.TID 0000.0001) %MON obc_N_vVel_max               =  -7.2762323213096E-08
(PID.TID 0000.0001) %MON obc_N_vVel_min               =  -7.2762323213099E-08
(PID.TID 0000.0001) %MON obc_N_vVel_mean              =  -7.2762323213096E-08
(PID.TID 0000.0001) %MON obc_N_vVel_sd                =   2.2310787327982E-14
(PID.TID 0000.0001) %MON obc_N_vVel_Int               =  -4.8023133320643E+00
(PID.TID 0000.0001) // =======================================================
(PID.TID 0000.0001) // End OBCS MONITOR field statistics
(PID.TID 0000.0001) // =======================================================
 cg2d: Sum(rhs),rhsMax =   3.01140416464187E+00  4.53049127593904E+02
(PID.TID 0000.0001)      cg2d_init_res =   1.44205550801966E-06
(PID.TID 0000.0001)      cg2d_iters(min,last) =      -1      71
(PID.TID 0000.0001)      cg2d_last_res =   7.95134274145712E-12
(PID.TID 0000.0001) // =======================================================
(PID.TID 0000.0001) // Begin MONITOR dynamic field statistics
(PID.TID 0000.0001) // =======================================================
(PID.TID 0000.0001) %MON time_tsnumber                =                   611
(PID.TID 0000.0001) %MON time_secondsf                =   6.1100000000000E+04
(PID.TID 0000.0001) %MON dynstat_eta_max              =   5.7971661080176E+00
(PID.TID 0000.0001) %MON dynstat_eta_min              =  -1.4175455433779E+01
(PID.TID 0000.0001) %MON dynstat_eta_mean             =  -2.5265074622660E+00
(PID.TID 0000.0001) %MON dynstat_eta_sd               =   4.9417977222888E+00
(PID.TID 0000.0001) %MON dynstat_eta_del2             =   1.9058143927877E-01
(PID.TID 0000.0001) %MON dynstat_uvel_max             =   2.5419893884031E-03
(PID.TID 0000.0001) %MON dynstat_uvel_min             =  -7.2023986546350E-03
(PID.TID 0000.0001) %MON dynstat_uvel_mean            =  -1.5058202911655E-09
(PID.TID 0000.0001) %MON dynstat_uvel_sd              =   2.1088018694772E-04
(PID.TID 0000.0001) %MON dynstat_uvel_del2            =   3.6761381572890E-07
(PID.TID 0000.0001) %MON dynstat_vvel_max             =   6.7433568311155E-03
(PID.TID 0000.0001) %MON dynstat_vvel_min             =  -2.0229420690150E-03
(PID.TID 0000.0001) %MON dynstat_vvel_mean            =  -6.1207882852053E-08
(PID.TID 0000.0001) %MON dynstat_vvel_sd              =   1.3096566746086E-04
(PID.TID 0000.0001) %MON dynstat_vvel_del2            =   3.5831109173546E-07
(PID.TID 0000.0001) %MON dynstat_wvel_max             =   2.5869317191930E-04
(PID.TID 0000.0001) %MON dynstat_wvel_min             =  -2.6381711828691E-04
(PID.TID 0000.0001) %MON dynstat_wvel_mean            =   1.5900421351840E-10
(PID.TID 0000.0001) %MON dynstat_wvel_sd              =   1.2108538795035E-05
(PID.TID 0000.0001) %MON dynstat_wvel_del2            =   5.2635946732138E-08
(PID.TID 0000.0001) %MON dynstat_theta_max            =   1.2000000000000E+00
(PID.TID 0000.0001) %MON dynstat_theta_min            =  -1.0000000000000E+00
(PID.TID 0000.0001) %MON dynstat_theta_mean           =   5.6537094318194E-01
(PID.TID 0000.0001) %MON dynstat_theta_sd             =   8.4903635006479E-01
(PID.TID 0000.0001) %MON dynstat_theta_del2           =   1.0024747919665E-06
(PID.TID 0000.0001) %MON dynstat_salt_max             =   3.4700000000000E+01
(PID.TID 0000.0001) %MON dynstat_salt_min             =   3.4000000000000E+01
(PID.TID 0000.0001) %MON dynstat_salt_mean            =   3.4498062023004E+01
(PID.TID 0000.0001) %MON dynstat_salt_sd              =   2.7014841577950E-01
(PID.TID 0000.0001) %MON dynstat_salt_del2            =   3.8608558074740E-07
(PID.TID 0000.0001) %MON advcfl_uvel_max              =   7.2023986546350E-04
(PID.TID 0000.0001) %MON advcfl_vvel_max              =   6.7433568311155E-04
(PID.TID 0000.0001) %MON advcfl_wvel_max              =   1.3190855914345E-03
(PID.TID 0000.0001) %MON advcfl_W_hf_max              =   1.3190855914345E-03
(PID.TID 0000.0001) %MON pe_b_mean                    =  -6.8267143788624E-01
(PID.TID 0000.0001) %MON ke_max                       =   1.6051907662764E-05
(PID.TID 0000.0001) %MON ke_mean                      =   3.0392974746040E-08
(PID.TID 0000.0001) %MON ke_vol                       =   4.6182925306203E+12
(PID.TID 0000.0001) // =======================================================
(PID.TID 0000.0001) // End MONITOR dynamic field statistics
(PID.TID 0000.0001) // =======================================================
(PID.TID 0000.0001) // =======================================================
(PID.TID 0000.0001) // Begin OBCS MONITOR field statistics
(PID.TID 0000.0001) // =======================================================
(PID.TID 0000.0001) %MON obc_N_vVel_max               =  -7.2620349355566E-08
(PID.TID 0000.0001) %MON obc_N_vVel_min               =  -7.2620349355566E-08
(PID.TID 0000.0001) %MON obc_N_vVel_mean              =  -7.2620349355566E-08
(PID.TID 0000.0001) %MON obc_N_vVel_sd                =  -3.1554436208840E-29
(PID.TID 0000.0001) %MON obc_N_vVel_Int               =  -4.7929430574673E+00
(PID.TID 0000.0001) // =======================================================
(PID.TID 0000.0001) // End OBCS MONITOR field statistics
(PID.TID 0000.0001) // =======================================================
 cg2d: Sum(rhs),rhsMax =   3.01140120550042E+00  4.53049117908041E+02
(PID.TID 0000.0001)      cg2d_init_res =   1.45039995216101E-06
(PID.TID 0000.0001)      cg2d_iters(min,last) =      -1      71
(PID.TID 0000.0001)      cg2d_last_res =   7.97786035833032E-12
(PID.TID 0000.0001) // =======================================================
(PID.TID 0000.0001) // Begin MONITOR dynamic field statistics
(PID.TID 0000.0001) // =======================================================
(PID.TID 0000.0001) %MON time_tsnumber                =                   612
(PID.TID 0000.0001) %MON time_secondsf                =   6.1200000000000E+04
(PID.TID 0000.0001) %MON dynstat_eta_max              =   5.7971689289791E+00
(PID.TID 0000.0001) %MON dynstat_eta_min              =  -1.4175450363093E+01
(PID.TID 0000.0001) %MON dynstat_eta_mean             =  -2.5265049255911E+00
(PID.TID 0000.0001) %MON dynstat_eta_sd               =   4.9417969315606E+00
(PID.TID 0000.0001) %MON dynstat_eta_del2             =   1.9058144375892E-01
(PID.TID 0000.0001) %MON dynstat_uvel_max             =   2.5462698151539E-03
(PID.TID 0000.0001) %MON dynstat_uvel_min             =  -7.2243302563528E-03
(PID.TID 0000.0001) %MON dynstat_uvel_mean            =  -1.5050795561160E-09
(PID.TID 0000.0001) %MON dynstat_uvel_sd              =   2.1128444808687E-04
(PID.TID 0000.0001) %MON dynstat_uvel_del2            =   3.6831707130905E-07
(PID.TID 0000.0001) %MON dynstat_vvel_max             =   6.7585757171811E-03
(PID.TID 0000.0001) %MON dynstat_vvel_min             =  -2.0297030787955E-03
(PID.TID 0000.0001) %MON dynstat_vvel_mean            =  -6.0857689592629E-08
(PID.TID 0000.0001) %MON dynstat_vvel_sd              =   1.3117774883817E-04
(PID.TID 0000.0001) %MON dynstat_vvel_del2            =   3.5907079568025E-07
(PID.TID 0000.0001) %MON dynstat_wvel_max             =   2.5967235536177E-04
(PID.TID 0000.0001) %MON dynstat_wvel_min             =  -2.6458092194840E-04
(PID.TID 0000.0001) %MON dynstat_wvel_mean            =   1.5987568075161E-10
(PID.TID 0000.0001) %MON dynstat_wvel_sd              =   1.2178466401741E-05
(PID.TID 0000.0001) %MON dynstat_wvel_del2            =   5.3142835455797E-08
(PID.TID 0000.0001) %MON dynstat_theta_max            =   1.2000000000000E+00
(PID.TID 0000.0001) %MON dynstat_theta_min            =  -1.0000000000000E+00
(PID.TID 0000.0001) %MON dynstat_theta_mean           =   5.6537066805621E-01
(PID.TID 0000.0001) %MON dynstat_theta_sd             =   8.4903626263066E-01
(PID.TID 0000.0001) %MON dynstat_theta_del2           =   1.0039608350118E-06
(PID.TID 0000.0001) %MON dynstat_salt_max             =   3.4700000000000E+01
(PID.TID 0000.0001) %MON dynstat_salt_min             =   3.4000000000000E+01
(PID.TID 0000.0001) %MON dynstat_salt_mean            =   3.4498061913692E+01
(PID.TID 0000.0001) %MON dynstat_salt_sd              =   2.7014838569712E-01
(PID.TID 0000.0001) %MON dynstat_salt_del2            =   3.8674946507619E-07
(PID.TID 0000.0001) %MON advcfl_uvel_max              =   7.2243302563528E-04
(PID.TID 0000.0001) %MON advcfl_vvel_max              =   6.7585757171811E-04
(PID.TID 0000.0001) %MON advcfl_wvel_max              =   1.3229046097420E-03
(PID.TID 0000.0001) %MON advcfl_W_hf_max              =   1.3229046097420E-03
(PID.TID 0000.0001) %MON pe_b_mean                    =  -6.8267073716495E-01
(PID.TID 0000.0001) %MON ke_max                       =   1.6147990645755E-05
(PID.TID 0000.0001) %MON ke_mean                      =   3.0504499994211E-08
(PID.TID 0000.0001) %MON ke_vol                       =   4.6182925456741E+12
(PID.TID 0000.0001) // =======================================================
(PID.TID 0000.0001) // End MONITOR dynamic field statistics
(PID.TID 0000.0001) // =======================================================
(PID.TID 0000.0001) // =======================================================
(PID.TID 0000.0001) // Begin OBCS MONITOR field statistics
(PID.TID 0000.0001) // =======================================================
(PID.TID 0000.0001) %MON obc_N_vVel_max               =  -7.2375923729381E-08
(PID.TID 0000.0001) %MON obc_N_vVel_min               =  -7.2375923729381E-08
(PID.TID 0000.0001) %MON obc_N_vVel_mean              =  -7.2375923729381E-08
(PID.TID 0000.0001) %MON obc_N_vVel_sd                =   1.5151188845081E-14
(PID.TID 0000.0001) %MON obc_N_vVel_Int               =  -4.7768109661391E+00
(PID.TID 0000.0001) // =======================================================
(PID.TID 0000.0001) // End OBCS MONITOR field statistics
(PID.TID 0000.0001) // =======================================================
 cg2d: Sum(rhs),rhsMax =   3.01139824381362E+00  4.53049108199668E+02
(PID.TID 0000.0001)      cg2d_init_res =   1.45459490805130E-06
(PID.TID 0000.0001)      cg2d_iters(min,last) =      -1      71
(PID.TID 0000.0001)      cg2d_last_res =   8.00507010009848E-12
(PID.TID 0000.0001) // =======================================================
(PID.TID 0000.0001) // Begin MONITOR dynamic field statistics
(PID.TID 0000.0001) // =======================================================
(PID.TID 0000.0001) %MON time_tsnumber                =                   613
(PID.TID 0000.0001) %MON time_secondsf                =   6.1300000000000E+04
(PID.TID 0000.0001) %MON dynstat_eta_max              =   5.7971717512976E+00
(PID.TID 0000.0001) %MON dynstat_eta_min              =  -1.4175445302939E+01
(PID.TID 0000.0001) %MON dynstat_eta_mean             =  -2.5265023866552E+00
(PID.TID 0000.0001) %MON dynstat_eta_sd               =   4.9417961402557E+00
(PID.TID 0000.0001) %MON dynstat_eta_del2             =   1.9058144824622E-01
(PID.TID 0000.0001) %MON dynstat_uvel_max             =   2.5505586752548E-03
(PID.TID 0000.0001) %MON dynstat_uvel_min             =  -7.2463158098479E-03
(PID.TID 0000.0001) %MON dynstat_uvel_mean            =  -1.5038452755443E-09
(PID.TID 0000.0001) %MON dynstat_uvel_sd              =   2.1169017430270E-04
(PID.TID 0000.0001) %MON dynstat_uvel_del2            =   3.6902317391559E-07
(PID.TID 0000.0001) %MON dynstat_vvel_max             =   6.7738169839078E-03
(PID.TID 0000.0001) %MON dynstat_vvel_min             =  -2.0364737949210E-03
(PID.TID 0000.0001) %MON dynstat_vvel_mean            =  -6.0412248456210E-08
(PID.TID 0000.0001) %MON dynstat_vvel_sd              =   1.3136004598457E-04
(PID.TID 0000.0001) %MON dynstat_vvel_del2            =   3.5965887781771E-07
(PID.TID 0000.0001) %MON dynstat_wvel_max             =   2.6065363796744E-04
(PID.TID 0000.0001) %MON dynstat_wvel_min             =  -2.6534547527075E-04
(PID.TID 0000.0001) %MON dynstat_wvel_mean            =   1.6066875263359E-10
(PID.TID 0000.0001) %MON dynstat_wvel_sd              =   1.2175038035418E-05
(PID.TID 0000.0001) %MON dynstat_wvel_del2            =   5.3314176505288E-08
(PID.TID 0000.0001) %MON dynstat_theta_max            =   1.2000000000000E+00
(PID.TID 0000.0001) %MON dynstat_theta_min            =  -1.0000000000000E+00
(PID.TID 0000.0001) %MON dynstat_theta_mean           =   5.6537039249830E-01
(PID.TID 0000.0001) %MON dynstat_theta_sd             =   8.4903617508258E-01
(PID.TID 0000.0001) %MON dynstat_theta_del2           =   1.0057018628716E-06
(PID.TID 0000.0001) %MON dynstat_salt_max             =   3.4700000000000E+01
(PID.TID 0000.0001) %MON dynstat_salt_min             =   3.4000000000000E+01
(PID.TID 0000.0001) %MON dynstat_salt_mean            =   3.4498061804218E+01
(PID.TID 0000.0001) %MON dynstat_salt_sd              =   2.7014835556303E-01
(PID.TID 0000.0001) %MON dynstat_salt_del2            =   3.8748074843568E-07
(PID.TID 0000.0001) %MON advcfl_uvel_max              =   7.2463158098479E-04
(PID.TID 0000.0001) %MON advcfl_vvel_max              =   6.7738169839078E-04
(PID.TID 0000.0001) %MON advcfl_wvel_max              =   1.3267273763538E-03
(PID.TID 0000.0001) %MON advcfl_W_hf_max              =   1.3267273763538E-03
(PID.TID 0000.0001) %MON pe_b_mean                    =  -6.8267003568359E-01
(PID.TID 0000.0001) %MON ke_max                       =   1.6244612093144E-05
(PID.TID 0000.0001) %MON ke_mean                      =   3.0612622109000E-08
(PID.TID 0000.0001) %MON ke_vol                       =   4.6182925607420E+12
(PID.TID 0000.0001) // =======================================================
(PID.TID 0000.0001) // End MONITOR dynamic field statistics
(PID.TID 0000.0001) // =======================================================
(PID.TID 0000.0001) // =======================================================
(PID.TID 0000.0001) // Begin OBCS MONITOR field statistics
(PID.TID 0000.0001) // =======================================================
(PID.TID 0000.0001) %MON obc_N_vVel_max               =  -7.2037979870913E-08
(PID.TID 0000.0001) %MON obc_N_vVel_min               =  -7.2037979870915E-08
(PID.TID 0000.0001) %MON obc_N_vVel_mean              =  -7.2037979870913E-08
(PID.TID 0000.0001) %MON obc_N_vVel_sd                =   1.1304665702523E-14
(PID.TID 0000.0001) %MON obc_N_vVel_Int               =  -4.7545066714803E+00
(PID.TID 0000.0001) // =======================================================
(PID.TID 0000.0001) // End OBCS MONITOR field statistics
(PID.TID 0000.0001) // =======================================================
 cg2d: Sum(rhs),rhsMax =   3.01139527966836E+00  4.53049098470812E+02
(PID.TID 0000.0001)      cg2d_init_res =   1.45443888988054E-06
(PID.TID 0000.0001)      cg2d_iters(min,last) =      -1      71
(PID.TID 0000.0001)      cg2d_last_res =   8.03401708965990E-12
(PID.TID 0000.0001) // =======================================================
(PID.TID 0000.0001) // Begin MONITOR dynamic field statistics
(PID.TID 0000.0001) // =======================================================
(PID.TID 0000.0001) %MON time_tsnumber                =                   614
(PID.TID 0000.0001) %MON time_secondsf                =   6.1400000000000E+04
(PID.TID 0000.0001) %MON dynstat_eta_max              =   5.7971745747238E+00
(PID.TID 0000.0001) %MON dynstat_eta_min              =  -1.4175440253457E+01
(PID.TID 0000.0001) %MON dynstat_eta_mean             =  -2.5264998455426E+00
(PID.TID 0000.0001) %MON dynstat_eta_sd               =   4.9417953483899E+00
(PID.TID 0000.0001) %MON dynstat_eta_del2             =   1.9058145274063E-01
(PID.TID 0000.0001) %MON dynstat_uvel_max             =   2.5548559420194E-03
(PID.TID 0000.0001) %MON dynstat_uvel_min             =  -7.2683554399973E-03
(PID.TID 0000.0001) %MON dynstat_uvel_mean            =  -1.5020008071087E-09
(PID.TID 0000.0001) %MON dynstat_uvel_sd              =   2.1209739189211E-04
(PID.TID 0000.0001) %MON dynstat_uvel_del2            =   3.6973212775933E-07
(PID.TID 0000.0001) %MON dynstat_vvel_max             =   6.7890806976409E-03
(PID.TID 0000.0001) %MON dynstat_vvel_min             =  -2.0432542295312E-03
(PID.TID 0000.0001) %MON dynstat_vvel_mean            =  -5.9886194521530E-08
(PID.TID 0000.0001) %MON dynstat_vvel_sd              =   1.3151282494208E-04
(PID.TID 0000.0001) %MON dynstat_vvel_del2            =   3.6007756364789E-07
(PID.TID 0000.0001) %MON dynstat_wvel_max             =   2.6163702484247E-04
(PID.TID 0000.0001) %MON dynstat_wvel_min             =  -2.6611077985461E-04
(PID.TID 0000.0001) %MON dynstat_wvel_mean            =   1.6136373949986E-10
(PID.TID 0000.0001) %MON dynstat_wvel_sd              =   1.2098879415733E-05
(PID.TID 0000.0001) %MON dynstat_wvel_del2            =   5.3139746397208E-08
(PID.TID 0000.0001) %MON dynstat_theta_max            =   1.2000000000000E+00
(PID.TID 0000.0001) %MON dynstat_theta_min            =  -1.0000000000000E+00
(PID.TID 0000.0001) %MON dynstat_theta_mean           =   5.6537011650326E-01
(PID.TID 0000.0001) %MON dynstat_theta_sd             =   8.4903608743291E-01
(PID.TID 0000.0001) %MON dynstat_theta_del2           =   1.0076934390927E-06
(PID.TID 0000.0001) %MON dynstat_salt_max             =   3.4700000000000E+01
(PID.TID 0000.0001) %MON dynstat_salt_min             =   3.4000000000000E+01
(PID.TID 0000.0001) %MON dynstat_salt_mean            =   3.4498061694581E+01
(PID.TID 0000.0001) %MON dynstat_salt_sd              =   2.7014832538134E-01
(PID.TID 0000.0001) %MON dynstat_salt_del2            =   3.8827822821061E-07
(PID.TID 0000.0001) %MON advcfl_uvel_max              =   7.2683554399973E-04
(PID.TID 0000.0001) %MON advcfl_vvel_max              =   6.7890806976409E-04
(PID.TID 0000.0001) %MON advcfl_wvel_max              =   1.3305538992730E-03
(PID.TID 0000.0001) %MON advcfl_W_hf_max              =   1.3305538992730E-03
(PID.TID 0000.0001) %MON pe_b_mean                    =  -6.8266933345600E-01
(PID.TID 0000.0001) %MON ke_max                       =   1.6341774771856E-05
(PID.TID 0000.0001) %MON ke_mean                      =   3.0717367012409E-08
(PID.TID 0000.0001) %MON ke_vol                       =   4.6182925758233E+12
(PID.TID 0000.0001) // =======================================================
(PID.TID 0000.0001) // End MONITOR dynamic field statistics
(PID.TID 0000.0001) // =======================================================
(PID.TID 0000.0001) // =======================================================
(PID.TID 0000.0001) // Begin OBCS MONITOR field statistics
(PID.TID 0000.0001) // =======================================================
(PID.TID 0000.0001) %MON obc_N_vVel_max               =  -7.1618231957403E-08
(PID.TID 0000.0001) %MON obc_N_vVel_min               =  -7.1618231957404E-08
(PID.TID 0000.0001) %MON obc_N_vVel_mean              =  -7.1618231957404E-08
(PID.TID 0000.0001) %MON obc_N_vVel_sd                =  -1.3568407569801E-28
(PID.TID 0000.0001) %MON obc_N_vVel_Int               =  -4.7268033091887E+00
(PID.TID 0000.0001) // =======================================================
(PID.TID 0000.0001) // End OBCS MONITOR field statistics
(PID.TID 0000.0001) // =======================================================
 cg2d: Sum(rhs),rhsMax =   3.01139231312954E+00  4.53049088723693E+02
(PID.TID 0000.0001)      cg2d_init_res =   1.44997165491545E-06
(PID.TID 0000.0001)      cg2d_iters(min,last) =      -1      71
(PID.TID 0000.0001)      cg2d_last_res =   8.06550558089080E-12
(PID.TID 0000.0001) // =======================================================
(PID.TID 0000.0001) // Begin MONITOR dynamic field statistics
(PID.TID 0000.0001) // =======================================================
(PID.TID 0000.0001) %MON time_tsnumber                =                   615
(PID.TID 0000.0001) %MON time_secondsf                =   6.1500000000000E+04
(PID.TID 0000.0001) %MON dynstat_eta_max              =   5.7971773990367E+00
(PID.TID 0000.0001) %MON dynstat_eta_min              =  -1.4175435214759E+01
(PID.TID 0000.0001) %MON dynstat_eta_mean             =  -2.5264973023201E+00
(PID.TID 0000.0001) %MON dynstat_eta_sd               =   4.9417945559723E+00
(PID.TID 0000.0001) %MON dynstat_eta_del2             =   1.9058145724211E-01
(PID.TID 0000.0001) %MON dynstat_uvel_max             =   2.5591615881932E-03
(PID.TID 0000.0001) %MON dynstat_uvel_min             =  -7.2904492714017E-03
(PID.TID 0000.0001) %MON dynstat_uvel_mean            =  -1.4994501715736E-09
(PID.TID 0000.0001) %MON dynstat_uvel_sd              =   2.1250612317948E-04
(PID.TID 0000.0001) %MON dynstat_uvel_del2            =   3.7044391100561E-07
(PID.TID 0000.0001) %MON dynstat_vvel_max             =   6.8043669237441E-03
(PID.TID 0000.0001) %MON dynstat_vvel_min             =  -2.0500443952640E-03
(PID.TID 0000.0001) %MON dynstat_vvel_mean            =  -5.9296401712684E-08
(PID.TID 0000.0001) %MON dynstat_vvel_sd              =   1.3163824457089E-04
(PID.TID 0000.0001) %MON dynstat_vvel_del2            =   3.6033988958161E-07
(PID.TID 0000.0001) %MON dynstat_wvel_max             =   2.6262252110997E-04
(PID.TID 0000.0001) %MON dynstat_wvel_min             =  -2.6687683736909E-04
(PID.TID 0000.0001) %MON dynstat_wvel_mean            =   1.6194470196430E-10
(PID.TID 0000.0001) %MON dynstat_wvel_sd              =   1.1953984286483E-05
(PID.TID 0000.0001) %MON dynstat_wvel_del2            =   5.2625160153681E-08
(PID.TID 0000.0001) %MON dynstat_theta_max            =   1.2000000000000E+00
(PID.TID 0000.0001) %MON dynstat_theta_min            =  -1.0000000000000E+00
(PID.TID 0000.0001) %MON dynstat_theta_mean           =   5.6536984006825E-01
(PID.TID 0000.0001) %MON dynstat_theta_sd             =   8.4903599969516E-01
(PID.TID 0000.0001) %MON dynstat_theta_del2           =   1.0099155325626E-06
(PID.TID 0000.0001) %MON dynstat_salt_max             =   3.4700000000000E+01
(PID.TID 0000.0001) %MON dynstat_salt_min             =   3.4000000000000E+01
(PID.TID 0000.0001) %MON dynstat_salt_mean            =   3.4498061584780E+01
(PID.TID 0000.0001) %MON dynstat_salt_sd              =   2.7014829515615E-01
(PID.TID 0000.0001) %MON dynstat_salt_del2            =   3.8913664746773E-07
(PID.TID 0000.0001) %MON advcfl_uvel_max              =   7.2904492714017E-04
(PID.TID 0000.0001) %MON advcfl_vvel_max              =   6.8043669237441E-04
(PID.TID 0000.0001) %MON advcfl_wvel_max              =   1.3343841868454E-03
(PID.TID 0000.0001) %MON advcfl_W_hf_max              =   1.3343841868454E-03
(PID.TID 0000.0001) %MON pe_b_mean                    =  -6.8266863049193E-01
(PID.TID 0000.0001) %MON ke_max                       =   1.6439481458517E-05
(PID.TID 0000.0001) %MON ke_mean                      =   3.0819011796085E-08
(PID.TID 0000.0001) %MON ke_vol                       =   4.6182925909175E+12
(PID.TID 0000.0001) // =======================================================
(PID.TID 0000.0001) // End MONITOR dynamic field statistics
(PID.TID 0000.0001) // =======================================================
(PID.TID 0000.0001) // =======================================================
(PID.TID 0000.0001) // Begin OBCS MONITOR field statistics
(PID.TID 0000.0001) // =======================================================
(PID.TID 0000.0001) %MON obc_N_vVel_max               =  -7.1130755892718E-08
(PID.TID 0000.0001) %MON obc_N_vVel_min               =  -7.1130755892719E-08
(PID.TID 0000.0001) %MON obc_N_vVel_mean              =  -7.1130755892719E-08
(PID.TID 0000.0001) %MON obc_N_vVel_sd                =  -7.6519507806438E-29
(PID.TID 0000.0001) %MON obc_N_vVel_Int               =  -4.6946298889195E+00
(PID.TID 0000.0001) // =======================================================
(PID.TID 0000.0001) // End OBCS MONITOR field statistics
(PID.TID 0000.0001) // =======================================================
 cg2d: Sum(rhs),rhsMax =   3.01138934424018E+00  4.53049078960670E+02
(PID.TID 0000.0001)      cg2d_init_res =   1.44148611006575E-06
(PID.TID 0000.0001)      cg2d_iters(min,last) =      -1      71
(PID.TID 0000.0001)      cg2d_last_res =   8.09979158181955E-12
(PID.TID 0000.0001) // =======================================================
(PID.TID 0000.0001) // Begin MONITOR dynamic field statistics
(PID.TID 0000.0001) // =======================================================
(PID.TID 0000.0001) %MON time_tsnumber                =                   616
(PID.TID 0000.0001) %MON time_secondsf                =   6.1600000000000E+04
(PID.TID 0000.0001) %MON dynstat_eta_max              =   5.7971802240472E+00
(PID.TID 0000.0001) %MON dynstat_eta_min              =  -1.4175430186910E+01
(PID.TID 0000.0001) %MON dynstat_eta_mean             =  -2.5264947570370E+00
(PID.TID 0000.0001) %MON dynstat_eta_sd               =   4.9417937630064E+00
(PID.TID 0000.0001) %MON dynstat_eta_del2             =   1.9058146175072E-01
(PID.TID 0000.0001) %MON dynstat_uvel_max             =   2.5634755861788E-03
(PID.TID 0000.0001) %MON dynstat_uvel_min             =  -7.3125974283546E-03
(PID.TID 0000.0001) %MON dynstat_uvel_mean            =  -1.4961205663299E-09
(PID.TID 0000.0001) %MON dynstat_uvel_sd              =   2.1291638668156E-04
(PID.TID 0000.0001) %MON dynstat_uvel_del2            =   3.7115847947727E-07
(PID.TID 0000.0001) %MON dynstat_vvel_max             =   6.8196757271204E-03
(PID.TID 0000.0001) %MON dynstat_vvel_min             =  -2.0568443051294E-03
(PID.TID 0000.0001) %MON dynstat_vvel_mean            =  -5.8661392553993E-08
(PID.TID 0000.0001) %MON dynstat_vvel_sd              =   1.3174019342152E-04
(PID.TID 0000.0001) %MON dynstat_vvel_del2            =   3.6046887846645E-07
(PID.TID 0000.0001) %MON dynstat_wvel_max             =   2.6361013191783E-04
(PID.TID 0000.0001) %MON dynstat_wvel_min             =  -2.6764364953458E-04
(PID.TID 0000.0001) %MON dynstat_wvel_mean            =   1.6239946393850E-10
(PID.TID 0000.0001) %MON dynstat_wvel_sd              =   1.1747671891641E-05
(PID.TID 0000.0001) %MON dynstat_wvel_del2            =   5.1791911875029E-08
(PID.TID 0000.0001) %MON dynstat_theta_max            =   1.2000000000000E+00
(PID.TID 0000.0001) %MON dynstat_theta_min            =  -1.0000000000000E+00
(PID.TID 0000.0001) %MON dynstat_theta_mean           =   5.6536956319280E-01
(PID.TID 0000.0001) %MON dynstat_theta_sd             =   8.4903591187341E-01
(PID.TID 0000.0001) %MON dynstat_theta_del2           =   1.0123338620032E-06
(PID.TID 0000.0001) %MON dynstat_salt_max             =   3.4700000000000E+01
(PID.TID 0000.0001) %MON dynstat_salt_min             =   3.4000000000000E+01
(PID.TID 0000.0001) %MON dynstat_salt_mean            =   3.4498061474815E+01
(PID.TID 0000.0001) %MON dynstat_salt_sd              =   2.7014826488873E-01
(PID.TID 0000.0001) %MON dynstat_salt_del2            =   3.9004700743740E-07
(PID.TID 0000.0001) %MON advcfl_uvel_max              =   7.3125974283546E-04
(PID.TID 0000.0001) %MON advcfl_vvel_max              =   6.8196757271204E-04
(PID.TID 0000.0001) %MON advcfl_wvel_max              =   1.3382182476729E-03
(PID.TID 0000.0001) %MON advcfl_W_hf_max              =   1.3382182476729E-03
(PID.TID 0000.0001) %MON pe_b_mean                    =  -6.8266792679719E-01
(PID.TID 0000.0001) %MON ke_max                       =   1.6537734939544E-05
(PID.TID 0000.0001) %MON ke_mean                      =   3.0918064110655E-08
(PID.TID 0000.0001) %MON ke_vol                       =   4.6182926060242E+12
(PID.TID 0000.0001) // =======================================================
(PID.TID 0000.0001) // End MONITOR dynamic field statistics
(PID.TID 0000.0001) // =======================================================
(PID.TID 0000.0001) // =======================================================
(PID.TID 0000.0001) // Begin OBCS MONITOR field statistics
(PID.TID 0000.0001) // =======================================================
(PID.TID 0000.0001) %MON obc_N_vVel_max               =  -7.0591459571842E-08
(PID.TID 0000.0001) %MON obc_N_vVel_min               =  -7.0591459571843E-08
(PID.TID 0000.0001) %MON obc_N_vVel_mean              =  -7.0591459571843E-08
(PID.TID 0000.0001) %MON obc_N_vVel_sd                =  -1.7591598186429E-28
(PID.TID 0000.0001) %MON obc_N_vVel_Int               =  -4.6590363317416E+00
(PID.TID 0000.0001) // =======================================================
(PID.TID 0000.0001) // End OBCS MONITOR field statistics
(PID.TID 0000.0001) // =======================================================
 cg2d: Sum(rhs),rhsMax =   3.01138637301972E+00  4.53049069184285E+02
(PID.TID 0000.0001)      cg2d_init_res =   1.42951643812664E-06
(PID.TID 0000.0001)      cg2d_iters(min,last) =      -1      71
(PID.TID 0000.0001)      cg2d_last_res =   8.13697471848417E-12
(PID.TID 0000.0001) // =======================================================
(PID.TID 0000.0001) // Begin MONITOR dynamic field statistics
(PID.TID 0000.0001) // =======================================================
(PID.TID 0000.0001) %MON time_tsnumber                =                   617
(PID.TID 0000.0001) %MON time_secondsf                =   6.1700000000000E+04
(PID.TID 0000.0001) %MON dynstat_eta_max              =   5.7971830495856E+00
(PID.TID 0000.0001) %MON dynstat_eta_min              =  -1.4175425169920E+01
(PID.TID 0000.0001) %MON dynstat_eta_mean             =  -2.5264922097237E+00
(PID.TID 0000.0001) %MON dynstat_eta_sd               =   4.9417929694870E+00
(PID.TID 0000.0001) %MON dynstat_eta_del2             =   1.9058146626636E-01
(PID.TID 0000.0001) %MON dynstat_uvel_max             =   2.5677979076004E-03
(PID.TID 0000.0001) %MON dynstat_uvel_min             =  -7.3348000351006E-03
(PID.TID 0000.0001) %MON dynstat_uvel_mean            =  -1.4919664410324E-09
(PID.TID 0000.0001) %MON dynstat_uvel_sd              =   2.1332819749927E-04
(PID.TID 0000.0001) %MON dynstat_uvel_del2            =   3.7187577189206E-07
(PID.TID 0000.0001) %MON dynstat_vvel_max             =   6.8350071701251E-03
(PID.TID 0000.0001) %MON dynstat_vvel_min             =  -2.0636539830008E-03
(PID.TID 0000.0001) %MON dynstat_vvel_mean            =  -5.8000713662636E-08
(PID.TID 0000.0001) %MON dynstat_vvel_sd              =   1.3182402213838E-04
(PID.TID 0000.0001) %MON dynstat_vvel_del2            =   3.6049610473617E-07
(PID.TID 0000.0001) %MON dynstat_wvel_max             =   2.6459986243420E-04
(PID.TID 0000.0001) %MON dynstat_wvel_min             =  -2.6841123331772E-04
(PID.TID 0000.0001) %MON dynstat_wvel_mean            =   1.6272024576393E-10
(PID.TID 0000.0001) %MON dynstat_wvel_sd              =   1.1490518294167E-05
(PID.TID 0000.0001) %MON dynstat_wvel_del2            =   5.0677440011625E-08
(PID.TID 0000.0001) %MON dynstat_theta_max            =   1.2000000000000E+00
(PID.TID 0000.0001) %MON dynstat_theta_min            =  -1.0000000000000E+00
(PID.TID 0000.0001) %MON dynstat_theta_mean           =   5.6536928587878E-01
(PID.TID 0000.0001) %MON dynstat_theta_sd             =   8.4903582397037E-01
(PID.TID 0000.0001) %MON dynstat_theta_del2           =   1.0149020350300E-06
(PID.TID 0000.0001) %MON dynstat_salt_max             =   3.4700000000000E+01
(PID.TID 0000.0001) %MON dynstat_salt_min             =   3.4000000000000E+01
(PID.TID 0000.0001) %MON dynstat_salt_mean            =   3.4498061364686E+01
(PID.TID 0000.0001) %MON dynstat_salt_sd              =   2.7014823457992E-01
(PID.TID 0000.0001) %MON dynstat_salt_del2            =   3.9099713702602E-07
(PID.TID 0000.0001) %MON advcfl_uvel_max              =   7.3348000351006E-04
(PID.TID 0000.0001) %MON advcfl_vvel_max              =   6.8350071701251E-04
(PID.TID 0000.0001) %MON advcfl_wvel_max              =   1.3420561665886E-03
(PID.TID 0000.0001) %MON advcfl_W_hf_max              =   1.3420561665886E-03
(PID.TID 0000.0001) %MON pe_b_mean                    =  -6.8266722237347E-01
(PID.TID 0000.0001) %MON ke_max                       =   1.6636538011583E-05
(PID.TID 0000.0001) %MON ke_mean                      =   3.1015227096005E-08
(PID.TID 0000.0001) %MON ke_vol                       =   4.6182926211432E+12
(PID.TID 0000.0001) // =======================================================
(PID.TID 0000.0001) // End MONITOR dynamic field statistics
(PID.TID 0000.0001) // =======================================================
(PID.TID 0000.0001) // =======================================================
(PID.TID 0000.0001) // Begin OBCS MONITOR field statistics
(PID.TID 0000.0001) // =======================================================
(PID.TID 0000.0001) %MON obc_N_vVel_max               =  -7.0017547564981E-08
(PID.TID 0000.0001) %MON obc_N_vVel_min               =  -7.0017547564981E-08
(PID.TID 0000.0001) %MON obc_N_vVel_mean              =  -7.0017547564981E-08
(PID.TID 0000.0001) %MON obc_N_vVel_sd                =   5.4750994875343E-15
(PID.TID 0000.0001) %MON obc_N_vVel_Int               =  -4.6211581392887E+00
(PID.TID 0000.0001) // =======================================================
(PID.TID 0000.0001) // End OBCS MONITOR field statistics
(PID.TID 0000.0001) // =======================================================
 cg2d: Sum(rhs),rhsMax =   3.01138339946331E+00  4.53049059397194E+02
(PID.TID 0000.0001)      cg2d_init_res =   1.41481327499474E-06
(PID.TID 0000.0001)      cg2d_iters(min,last) =      -1      71
(PID.TID 0000.0001)      cg2d_last_res =   8.17697558477647E-12
(PID.TID 0000.0001) // =======================================================
(PID.TID 0000.0001) // Begin MONITOR dynamic field statistics
(PID.TID 0000.0001) // =======================================================
(PID.TID 0000.0001) %MON time_tsnumber                =                   618
(PID.TID 0000.0001) %MON time_secondsf                =   6.1800000000000E+04
(PID.TID 0000.0001) %MON dynstat_eta_max              =   5.7971858755142E+00
(PID.TID 0000.0001) %MON dynstat_eta_min              =  -1.4175420163772E+01
(PID.TID 0000.0001) %MON dynstat_eta_mean             =  -2.5264896603911E+00
(PID.TID 0000.0001) %MON dynstat_eta_sd               =   4.9417921754032E+00
(PID.TID 0000.0001) %MON dynstat_eta_del2             =   1.9058147078908E-01
(PID.TID 0000.0001) %MON dynstat_uvel_max             =   2.5721285236777E-03
(PID.TID 0000.0001) %MON dynstat_uvel_min             =  -7.3570572149153E-03
(PID.TID 0000.0001) %MON dynstat_uvel_mean            =  -1.4869704719196E-09
(PID.TID 0000.0001) %MON dynstat_uvel_sd              =   2.1374156784758E-04
(PID.TID 0000.0001) %MON dynstat_uvel_del2            =   3.7259571581469E-07
(PID.TID 0000.0001) %MON dynstat_vvel_max             =   6.8503613164952E-03
(PID.TID 0000.0001) %MON dynstat_vvel_min             =  -2.0704734413028E-03
(PID.TID 0000.0001) %MON dynstat_vvel_mean            =  -5.7334280255393E-08
(PID.TID 0000.0001) %MON dynstat_vvel_sd              =   1.3189618742378E-04
(PID.TID 0000.0001) %MON dynstat_vvel_del2            =   3.6045971712820E-07
(PID.TID 0000.0001) %MON dynstat_wvel_max             =   2.6559171784996E-04
(PID.TID 0000.0001) %MON dynstat_wvel_min             =  -2.6917958956193E-04
(PID.TID 0000.0001) %MON dynstat_wvel_mean            =   1.6290344615752E-10
(PID.TID 0000.0001) %MON dynstat_wvel_sd              =   1.1196222139544E-05
(PID.TID 0000.0001) %MON dynstat_wvel_del2            =   4.9335120406739E-08
(PID.TID 0000.0001) %MON dynstat_theta_max            =   1.2000000000000E+00
(PID.TID 0000.0001) %MON dynstat_theta_min            =  -1.0000000000000E+00
(PID.TID 0000.0001) %MON dynstat_theta_mean           =   5.6536900813044E-01
(PID.TID 0000.0001) %MON dynstat_theta_sd             =   8.4903573599347E-01
(PID.TID 0000.0001) %MON dynstat_theta_del2           =   1.0175646526140E-06
(PID.TID 0000.0001) %MON dynstat_salt_max             =   3.4700000000000E+01
(PID.TID 0000.0001) %MON dynstat_salt_min             =   3.4000000000000E+01
(PID.TID 0000.0001) %MON dynstat_salt_mean            =   3.4498061254394E+01
(PID.TID 0000.0001) %MON dynstat_salt_sd              =   2.7014820423230E-01
(PID.TID 0000.0001) %MON dynstat_salt_del2            =   3.9197248921935E-07
(PID.TID 0000.0001) %MON advcfl_uvel_max              =   7.3570572149153E-04
(PID.TID 0000.0001) %MON advcfl_vvel_max              =   6.8503613164952E-04
(PID.TID 0000.0001) %MON advcfl_wvel_max              =   1.3458979478096E-03
(PID.TID 0000.0001) %MON advcfl_W_hf_max              =   1.3458979478096E-03
(PID.TID 0000.0001) %MON pe_b_mean                    =  -6.8266651721834E-01
(PID.TID 0000.0001) %MON ke_max                       =   1.6735893479522E-05
(PID.TID 0000.0001) %MON ke_mean                      =   3.1111352199213E-08
(PID.TID 0000.0001) %MON ke_vol                       =   4.6182926362742E+12
(PID.TID 0000.0001) // =======================================================
(PID.TID 0000.0001) // End MONITOR dynamic field statistics
(PID.TID 0000.0001) // =======================================================
(PID.TID 0000.0001) // =======================================================
(PID.TID 0000.0001) // Begin OBCS MONITOR field statistics
(PID.TID 0000.0001) // =======================================================
(PID.TID 0000.0001) %MON obc_N_vVel_max               =  -6.9426921182026E-08
(PID.TID 0000.0001) %MON obc_N_vVel_min               =  -6.9426921182027E-08
(PID.TID 0000.0001) %MON obc_N_vVel_mean              =  -6.9426921182027E-08
(PID.TID 0000.0001) %MON obc_N_vVel_sd                =  -1.7907142548517E-28
(PID.TID 0000.0001) %MON obc_N_vVel_Int               =  -4.5821767980138E+00
(PID.TID 0000.0001) // =======================================================
(PID.TID 0000.0001) // End OBCS MONITOR field statistics
(PID.TID 0000.0001) // =======================================================
 cg2d: Sum(rhs),rhsMax =   3.01138042353995E+00  4.53049049602207E+02
(PID.TID 0000.0001)      cg2d_init_res =   1.39831233363727E-06
(PID.TID 0000.0001)      cg2d_iters(min,last) =      -1      71
(PID.TID 0000.0001)      cg2d_last_res =   8.21933844959082E-12
(PID.TID 0000.0001) // =======================================================
(PID.TID 0000.0001) // Begin MONITOR dynamic field statistics
(PID.TID 0000.0001) // =======================================================
(PID.TID 0000.0001) %MON time_tsnumber                =                   619
(PID.TID 0000.0001) %MON time_secondsf                =   6.1900000000000E+04
(PID.TID 0000.0001) %MON dynstat_eta_max              =   5.7971887017405E+00
(PID.TID 0000.0001) %MON dynstat_eta_min              =  -1.4175415168391E+01
(PID.TID 0000.0001) %MON dynstat_eta_mean             =  -2.5264871090286E+00
(PID.TID 0000.0001) %MON dynstat_eta_sd               =   4.9417913807373E+00
(PID.TID 0000.0001) %MON dynstat_eta_del2             =   1.9058147531890E-01
(PID.TID 0000.0001) %MON dynstat_uvel_max             =   2.5764674051167E-03
(PID.TID 0000.0001) %MON dynstat_uvel_min             =  -7.3793690914012E-03
(PID.TID 0000.0001) %MON dynstat_uvel_mean            =  -1.4811432540089E-09
(PID.TID 0000.0001) %MON dynstat_uvel_sd              =   2.1415650776672E-04
(PID.TID 0000.0001) %MON dynstat_uvel_del2            =   3.7331823434327E-07
(PID.TID 0000.0001) %MON dynstat_vvel_max             =   6.8657382295254E-03
(PID.TID 0000.0001) %MON dynstat_vvel_min             =  -2.0773026941905E-03
(PID.TID 0000.0001) %MON dynstat_vvel_mean            =  -5.6681704061652E-08
(PID.TID 0000.0001) %MON dynstat_vvel_sd              =   1.3196382893854E-04
(PID.TID 0000.0001) %MON dynstat_vvel_del2            =   3.6040201805999E-07
(PID.TID 0000.0001) %MON dynstat_wvel_max             =   2.6658570336017E-04
(PID.TID 0000.0001) %MON dynstat_wvel_min             =  -2.6994872015548E-04
(PID.TID 0000.0001) %MON dynstat_wvel_mean            =   1.6294997460774E-10
(PID.TID 0000.0001) %MON dynstat_wvel_sd              =   1.0881339069442E-05
(PID.TID 0000.0001) %MON dynstat_wvel_del2            =   4.7833976995911E-08
(PID.TID 0000.0001) %MON dynstat_theta_max            =   1.2000000000000E+00
(PID.TID 0000.0001) %MON dynstat_theta_min            =  -1.0000000000000E+00
(PID.TID 0000.0001) %MON dynstat_theta_mean           =   5.6536872995409E-01
(PID.TID 0000.0001) %MON dynstat_theta_sd             =   8.4903564794761E-01
(PID.TID 0000.0001) %MON dynstat_theta_del2           =   1.0202608919256E-06
(PID.TID 0000.0001) %MON dynstat_salt_max             =   3.4700000000000E+01
(PID.TID 0000.0001) %MON dynstat_salt_min             =   3.4000000000000E+01
(PID.TID 0000.0001) %MON dynstat_salt_mean            =   3.4498061143941E+01
(PID.TID 0000.0001) %MON dynstat_salt_sd              =   2.7014817384705E-01
(PID.TID 0000.0001) %MON dynstat_salt_del2            =   3.9295709426287E-07
(PID.TID 0000.0001) %MON advcfl_uvel_max              =   7.3793690914012E-04
(PID.TID 0000.0001) %MON advcfl_vvel_max              =   6.8657382295254E-04
(PID.TID 0000.0001) %MON advcfl_wvel_max              =   1.3497436007774E-03
(PID.TID 0000.0001) %MON advcfl_W_hf_max              =   1.3497436007774E-03
(PID.TID 0000.0001) %MON pe_b_mean                    =  -6.8266581132500E-01
(PID.TID 0000.0001) %MON ke_max                       =   1.6835804160512E-05
(PID.TID 0000.0001) %MON ke_mean                      =   3.1207383023952E-08
(PID.TID 0000.0001) %MON ke_vol                       =   4.6182926514173E+12
(PID.TID 0000.0001) // =======================================================
(PID.TID 0000.0001) // End MONITOR dynamic field statistics
(PID.TID 0000.0001) // =======================================================
(PID.TID 0000.0001) // =======================================================
(PID.TID 0000.0001) // Begin OBCS MONITOR field statistics
(PID.TID 0000.0001) // =======================================================
(PID.TID 0000.0001) %MON obc_N_vVel_max               =  -6.8837612549442E-08
(PID.TID 0000.0001) %MON obc_N_vVel_min               =  -6.8837612549443E-08
(PID.TID 0000.0001) %MON obc_N_vVel_mean              =  -6.8837612549442E-08
(PID.TID 0000.0001) %MON obc_N_vVel_sd                =   9.3575403007164E-15
(PID.TID 0000.0001) %MON obc_N_vVel_Int               =  -4.5432824282632E+00
(PID.TID 0000.0001) // =======================================================
(PID.TID 0000.0001) // End OBCS MONITOR field statistics
(PID.TID 0000.0001) // =======================================================
 cg2d: Sum(rhs),rhsMax =   3.01137744519631E+00  4.53049039802230E+02
(PID.TID 0000.0001)      cg2d_init_res =   1.38110028969543E-06
(PID.TID 0000.0001)      cg2d_iters(min,last) =      -1      71
(PID.TID 0000.0001)      cg2d_last_res =   8.26289231340812E-12
(PID.TID 0000.0001) // =======================================================
(PID.TID 0000.0001) // Begin MONITOR dynamic field statistics
(PID.TID 0000.0001) // =======================================================
(PID.TID 0000.0001) %MON time_tsnumber                =                   620
(PID.TID 0000.0001) %MON time_secondsf                =   6.2000000000000E+04
(PID.TID 0000.0001) %MON dynstat_eta_max              =   5.7971915281713E+00
(PID.TID 0000.0001) %MON dynstat_eta_min              =  -1.4175410183665E+01
(PID.TID 0000.0001) %MON dynstat_eta_mean             =  -2.5264845556079E+00
(PID.TID 0000.0001) %MON dynstat_eta_sd               =   4.9417905854659E+00
(PID.TID 0000.0001) %MON dynstat_eta_del2             =   1.9058147985582E-01
(PID.TID 0000.0001) %MON dynstat_uvel_max             =   2.5808145221529E-03
(PID.TID 0000.0001) %MON dynstat_uvel_min             =  -7.4017357878429E-03
(PID.TID 0000.0001) %MON dynstat_uvel_mean            =  -1.4745234893579E-09
(PID.TID 0000.0001) %MON dynstat_uvel_sd              =   2.1457302588263E-04
(PID.TID 0000.0001) %MON dynstat_uvel_del2            =   3.7404325290700E-07
(PID.TID 0000.0001) %MON dynstat_vvel_max             =   6.8811379721552E-03
(PID.TID 0000.0001) %MON dynstat_vvel_min             =  -2.0841417555069E-03
(PID.TID 0000.0001) %MON dynstat_vvel_mean            =  -5.6061668976353E-08
(PID.TID 0000.0001) %MON dynstat_vvel_sd              =   1.3203430526308E-04
(PID.TID 0000.0001) %MON dynstat_vvel_del2            =   3.6036673412173E-07
(PID.TID 0000.0001) %MON dynstat_wvel_max             =   2.6758182419331E-04
(PID.TID 0000.0001) %MON dynstat_wvel_min             =  -2.7071862672829E-04
(PID.TID 0000.0001) %MON dynstat_wvel_mean            =   1.6286529181947E-10
(PID.TID 0000.0001) %MON dynstat_wvel_sd              =   1.0564787122603E-05
(PID.TID 0000.0001) %MON dynstat_wvel_del2            =   4.6257727960946E-08
(PID.TID 0000.0001) %MON dynstat_theta_max            =   1.2000000000000E+00
(PID.TID 0000.0001) %MON dynstat_theta_min            =  -1.0000000000000E+00
(PID.TID 0000.0001) %MON dynstat_theta_mean           =   5.6536845135836E-01
(PID.TID 0000.0001) %MON dynstat_theta_sd             =   8.4903555982519E-01
(PID.TID 0000.0001) %MON dynstat_theta_del2           =   1.0229283750686E-06
(PID.TID 0000.0001) %MON dynstat_salt_max             =   3.4700000000000E+01
(PID.TID 0000.0001) %MON dynstat_salt_min             =   3.4000000000000E+01
(PID.TID 0000.0001) %MON dynstat_salt_mean            =   3.4498061033331E+01
(PID.TID 0000.0001) %MON dynstat_salt_sd              =   2.7014814342199E-01
(PID.TID 0000.0001) %MON dynstat_salt_del2            =   3.9393455518246E-07
(PID.TID 0000.0001) %MON advcfl_uvel_max              =   7.4017357878429E-04
(PID.TID 0000.0001) %MON advcfl_vvel_max              =   6.8811379721552E-04
(PID.TID 0000.0001) %MON advcfl_wvel_max              =   1.3535931336415E-03
(PID.TID 0000.0001) %MON advcfl_W_hf_max              =   1.3535931336415E-03
(PID.TID 0000.0001) %MON pe_b_mean                    =  -6.8266510468302E-01
(PID.TID 0000.0001) %MON ke_max                       =   1.6936272882175E-05
(PID.TID 0000.0001) %MON ke_mean                      =   3.1304293912085E-08
(PID.TID 0000.0001) %MON ke_vol                       =   4.6182926665724E+12
(PID.TID 0000.0001) // =======================================================
(PID.TID 0000.0001) // End MONITOR dynamic field statistics
(PID.TID 0000.0001) // =======================================================
(PID.TID 0000.0001) // =======================================================
(PID.TID 0000.0001) // Begin OBCS MONITOR field statistics
(PID.TID 0000.0001) // =======================================================
(PID.TID 0000.0001) %MON obc_N_vVel_max               =  -6.8267198854501E-08
(PID.TID 0000.0001) %MON obc_N_vVel_min               =  -6.8267198854501E-08
(PID.TID 0000.0001) %MON obc_N_vVel_mean              =  -6.8267198854501E-08
(PID.TID 0000.0001) %MON obc_N_vVel_sd                =  -5.1275958839366E-29
(PID.TID 0000.0001) %MON obc_N_vVel_Int               =  -4.5056351243971E+00
(PID.TID 0000.0001) // =======================================================
(PID.TID 0000.0001) // End OBCS MONITOR field statistics
(PID.TID 0000.0001) // =======================================================
 cg2d: Sum(rhs),rhsMax =   3.01137446435611E+00  4.53049030000257E+02
(PID.TID 0000.0001)      cg2d_init_res =   1.36434881442555E-06
(PID.TID 0000.0001)      cg2d_iters(min,last) =      -1      71
(PID.TID 0000.0001)      cg2d_last_res =   8.30529112280563E-12
(PID.TID 0000.0001) // =======================================================
(PID.TID 0000.0001) // Begin MONITOR dynamic field statistics
(PID.TID 0000.0001) // =======================================================
(PID.TID 0000.0001) %MON time_tsnumber                =                   621
(PID.TID 0000.0001) %MON time_secondsf                =   6.2100000000000E+04
(PID.TID 0000.0001) %MON dynstat_eta_max              =   5.7971943547675E+00
(PID.TID 0000.0001) %MON dynstat_eta_min              =  -1.4175405209436E+01
(PID.TID 0000.0001) %MON dynstat_eta_mean             =  -2.5264820000816E+00
(PID.TID 0000.0001) %MON dynstat_eta_sd               =   4.9417897895604E+00
(PID.TID 0000.0001) %MON dynstat_eta_del2             =   1.9058148439988E-01
(PID.TID 0000.0001) %MON dynstat_uvel_max             =   2.5851698444885E-03
(PID.TID 0000.0001) %MON dynstat_uvel_min             =  -7.4241574273879E-03
(PID.TID 0000.0001) %MON dynstat_uvel_mean            =  -1.4671825033420E-09
(PID.TID 0000.0001) %MON dynstat_uvel_sd              =   2.1499113018623E-04
(PID.TID 0000.0001) %MON dynstat_uvel_del2            =   3.7477070559051E-07
(PID.TID 0000.0001) %MON dynstat_vvel_max             =   6.8965606072102E-03
(PID.TID 0000.0001) %MON dynstat_vvel_min             =  -2.0909906392710E-03
(PID.TID 0000.0001) %MON dynstat_vvel_mean            =  -5.5491356031837E-08
(PID.TID 0000.0001) %MON dynstat_vvel_sd              =   1.3211471826457E-04
(PID.TID 0000.0001) %MON dynstat_vvel_del2            =   3.6039614248212E-07
(PID.TID 0000.0001) %MON dynstat_wvel_max             =   2.6858008560696E-04
(PID.TID 0000.0001) %MON dynstat_wvel_min             =  -2.7148931109273E-04
(PID.TID 0000.0001) %MON dynstat_wvel_mean            =   1.6265875371740E-10
(PID.TID 0000.0001) %MON dynstat_wvel_sd              =   1.0266998683151E-05
(PID.TID 0000.0001) %MON dynstat_wvel_del2            =   4.4702549459315E-08
(PID.TID 0000.0001) %MON dynstat_theta_max            =   1.2000000000000E+00
(PID.TID 0000.0001) %MON dynstat_theta_min            =  -1.0000000000000E+00
(PID.TID 0000.0001) %MON dynstat_theta_mean           =   5.6536817235380E-01
(PID.TID 0000.0001) %MON dynstat_theta_sd             =   8.4903547160879E-01
(PID.TID 0000.0001) %MON dynstat_theta_del2           =   1.0255071282436E-06
(PID.TID 0000.0001) %MON dynstat_salt_max             =   3.4700000000000E+01
(PID.TID 0000.0001) %MON dynstat_salt_min             =   3.4000000000000E+01
(PID.TID 0000.0001) %MON dynstat_salt_mean            =   3.4498060922566E+01
(PID.TID 0000.0001) %MON dynstat_salt_sd              =   2.7014811295141E-01
(PID.TID 0000.0001) %MON dynstat_salt_del2            =   3.9488911193434E-07
(PID.TID 0000.0001) %MON advcfl_uvel_max              =   7.4241574273879E-04
(PID.TID 0000.0001) %MON advcfl_vvel_max              =   6.8965606072102E-04
(PID.TID 0000.0001) %MON advcfl_wvel_max              =   1.3574465554636E-03
(PID.TID 0000.0001) %MON advcfl_W_hf_max              =   1.3574465554636E-03
(PID.TID 0000.0001) %MON pe_b_mean                    =  -6.8266439727832E-01
(PID.TID 0000.0001) %MON ke_max                       =   1.7037302483467E-05
(PID.TID 0000.0001) %MON ke_mean                      =   3.1403027289180E-08
(PID.TID 0000.0001) %MON ke_vol                       =   4.6182926817397E+12
(PID.TID 0000.0001) // =======================================================
(PID.TID 0000.0001) // End MONITOR dynamic field statistics
(PID.TID 0000.0001) // =======================================================
(PID.TID 0000.0001) // =======================================================
(PID.TID 0000.0001) // Begin OBCS MONITOR field statistics
(PID.TID 0000.0001) // =======================================================
(PID.TID 0000.0001) %MON obc_N_vVel_max               =  -6.7732196489581E-08
(PID.TID 0000.0001) %MON obc_N_vVel_min               =  -6.7732196489582E-08
(PID.TID 0000.0001) %MON obc_N_vVel_mean              =  -6.7732196489581E-08
(PID.TID 0000.0001) %MON obc_N_vVel_sd                =  -1.6487192919119E-28
(PID.TID 0000.0001) %MON obc_N_vVel_Int               =  -4.4703249683124E+00
(PID.TID 0000.0001) // =======================================================
(PID.TID 0000.0001) // End OBCS MONITOR field statistics
(PID.TID 0000.0001) // =======================================================
 cg2d: Sum(rhs),rhsMax =   3.01137148092200E+00  4.53049020199371E+02
(PID.TID 0000.0001)      cg2d_init_res =   1.34924569603709E-06
(PID.TID 0000.0001)      cg2d_iters(min,last) =      -1      71
(PID.TID 0000.0001)      cg2d_last_res =   8.34353180652426E-12
(PID.TID 0000.0001) // =======================================================
(PID.TID 0000.0001) // Begin MONITOR dynamic field statistics
(PID.TID 0000.0001) // =======================================================
(PID.TID 0000.0001) %MON time_tsnumber                =                   622
(PID.TID 0000.0001) %MON time_secondsf                =   6.2200000000000E+04
(PID.TID 0000.0001) %MON dynstat_eta_max              =   5.7971971815015E+00
(PID.TID 0000.0001) %MON dynstat_eta_min              =  -1.4175400245522E+01
(PID.TID 0000.0001) %MON dynstat_eta_mean             =  -2.5264794423853E+00
(PID.TID 0000.0001) %MON dynstat_eta_sd               =   4.9417889929893E+00
(PID.TID 0000.0001) %MON dynstat_eta_del2             =   1.9058148895115E-01
(PID.TID 0000.0001) %MON dynstat_uvel_max             =   2.5895333414905E-03
(PID.TID 0000.0001) %MON dynstat_uvel_min             =  -7.4466341334594E-03
(PID.TID 0000.0001) %MON dynstat_uvel_mean            =  -1.4592219532926E-09
(PID.TID 0000.0001) %MON dynstat_uvel_sd              =   2.1541082878115E-04
(PID.TID 0000.0001) %MON dynstat_uvel_del2            =   3.7550054062350E-07
(PID.TID 0000.0001) %MON dynstat_vvel_max             =   6.9120061975370E-03
(PID.TID 0000.0001) %MON dynstat_vvel_min             =  -2.0978493653443E-03
(PID.TID 0000.0001) %MON dynstat_vvel_mean            =  -5.4985931338406E-08
(PID.TID 0000.0001) %MON dynstat_vvel_sd              =   1.3221145686450E-04
(PID.TID 0000.0001) %MON dynstat_vvel_del2            =   3.6052824269093E-07
(PID.TID 0000.0001) %MON dynstat_wvel_max             =   2.6958049287314E-04
(PID.TID 0000.0001) %MON dynstat_wvel_min             =  -2.7226078213038E-04
(PID.TID 0000.0001) %MON dynstat_wvel_mean            =   1.6234349260124E-10
(PID.TID 0000.0001) %MON dynstat_wvel_sd              =   1.0008600650046E-05
(PID.TID 0000.0001) %MON dynstat_wvel_del2            =   4.3272711156873E-08
(PID.TID 0000.0001) %MON dynstat_theta_max            =   1.2000000000000E+00
(PID.TID 0000.0001) %MON dynstat_theta_min            =  -1.0000000000000E+00
(PID.TID 0000.0001) %MON dynstat_theta_mean           =   5.6536789295269E-01
(PID.TID 0000.0001) %MON dynstat_theta_sd             =   8.4903538327859E-01
(PID.TID 0000.0001) %MON dynstat_theta_del2           =   1.0279433317336E-06
(PID.TID 0000.0001) %MON dynstat_salt_max             =   3.4700000000000E+01
(PID.TID 0000.0001) %MON dynstat_salt_min             =   3.4000000000000E+01
(PID.TID 0000.0001) %MON dynstat_salt_mean            =   3.4498060811650E+01
(PID.TID 0000.0001) %MON dynstat_salt_sd              =   2.7014808242910E-01
(PID.TID 0000.0001) %MON dynstat_salt_del2            =   3.9580661460843E-07
(PID.TID 0000.0001) %MON advcfl_uvel_max              =   7.4466341334594E-04
(PID.TID 0000.0001) %MON advcfl_vvel_max              =   6.9120061975370E-04
(PID.TID 0000.0001) %MON advcfl_wvel_max              =   1.3613039106519E-03
(PID.TID 0000.0001) %MON advcfl_W_hf_max              =   1.3613039106519E-03
(PID.TID 0000.0001) %MON pe_b_mean                    =  -6.8266368909367E-01
(PID.TID 0000.0001) %MON ke_max                       =   1.7138895816378E-05
(PID.TID 0000.0001) %MON ke_mean                      =   3.1504433858050E-08
(PID.TID 0000.0001) %MON ke_vol                       =   4.6182926969195E+12
(PID.TID 0000.0001) // =======================================================
(PID.TID 0000.0001) // End MONITOR dynamic field statistics
(PID.TID 0000.0001) // =======================================================
(PID.TID 0000.0001) // =======================================================
(PID.TID 0000.0001) // Begin OBCS MONITOR field statistics
(PID.TID 0000.0001) // =======================================================
(PID.TID 0000.0001) %MON obc_N_vVel_max               =  -6.7247576076166E-08
(PID.TID 0000.0001) %MON obc_N_vVel_min               =  -6.7247576076168E-08
(PID.TID 0000.0001) %MON obc_N_vVel_mean              =  -6.7247576076168E-08
(PID.TID 0000.0001) %MON obc_N_vVel_sd                =  -2.3350282794542E-28
(PID.TID 0000.0001) %MON obc_N_vVel_Int               =  -4.4383400210271E+00
(PID.TID 0000.0001) // =======================================================
(PID.TID 0000.0001) // End OBCS MONITOR field statistics
(PID.TID 0000.0001) // =======================================================
 cg2d: Sum(rhs),rhsMax =   3.01136849477982E+00  4.53049010402660E+02
(PID.TID 0000.0001)      cg2d_init_res =   1.33690675539699E-06
(PID.TID 0000.0001)      cg2d_iters(min,last) =      -1      71
(PID.TID 0000.0001)      cg2d_last_res =   8.37508991659573E-12
(PID.TID 0000.0001) // =======================================================
(PID.TID 0000.0001) // Begin MONITOR dynamic field statistics
(PID.TID 0000.0001) // =======================================================
(PID.TID 0000.0001) %MON time_tsnumber                =                   623
(PID.TID 0000.0001) %MON time_secondsf                =   6.2300000000000E+04
(PID.TID 0000.0001) %MON dynstat_eta_max              =   5.7972000083709E+00
(PID.TID 0000.0001) %MON dynstat_eta_min              =  -1.4175395291708E+01
(PID.TID 0000.0001) %MON dynstat_eta_mean             =  -2.5264768824403E+00
(PID.TID 0000.0001) %MON dynstat_eta_sd               =   4.9417881957190E+00
(PID.TID 0000.0001) %MON dynstat_eta_del2             =   1.9058149350973E-01
(PID.TID 0000.0001) %MON dynstat_uvel_max             =   2.5939049820352E-03
(PID.TID 0000.0001) %MON dynstat_uvel_min             =  -7.4691660287209E-03
(PID.TID 0000.0001) %MON dynstat_uvel_mean            =  -1.4507665781096E-09
(PID.TID 0000.0001) %MON dynstat_uvel_sd              =   2.1583213051742E-04
(PID.TID 0000.0001) %MON dynstat_uvel_del2            =   3.7623272462808E-07
(PID.TID 0000.0001) %MON dynstat_vvel_max             =   6.9274748059593E-03
(PID.TID 0000.0001) %MON dynstat_vvel_min             =  -2.1047179456737E-03
(PID.TID 0000.0001) %MON dynstat_vvel_mean            =  -5.4558070803266E-08
(PID.TID 0000.0001) %MON dynstat_vvel_sd              =   1.3232979084163E-04
(PID.TID 0000.0001) %MON dynstat_vvel_del2            =   3.6079417674336E-07
(PID.TID 0000.0001) %MON dynstat_wvel_max             =   2.7058305130721E-04
(PID.TID 0000.0001) %MON dynstat_wvel_min             =  -2.7303303958072E-04
(PID.TID 0000.0001) %MON dynstat_wvel_mean            =   1.6193582890410E-10
(PID.TID 0000.0001) %MON dynstat_wvel_sd              =   9.8085865508352E-06
(PID.TID 0000.0001) %MON dynstat_wvel_del2            =   4.2073224669046E-08
(PID.TID 0000.0001) %MON dynstat_theta_max            =   1.2000000000000E+00
(PID.TID 0000.0001) %MON dynstat_theta_min            =  -1.0000000000000E+00
(PID.TID 0000.0001) %MON dynstat_theta_mean           =   5.6536761316891E-01
(PID.TID 0000.0001) %MON dynstat_theta_sd             =   8.4903529481868E-01
(PID.TID 0000.0001) %MON dynstat_theta_del2           =   1.0301927260315E-06
(PID.TID 0000.0001) %MON dynstat_salt_max             =   3.4700000000000E+01
(PID.TID 0000.0001) %MON dynstat_salt_min             =   3.4000000000000E+01
(PID.TID 0000.0001) %MON dynstat_salt_mean            =   3.4498060700587E+01
(PID.TID 0000.0001) %MON dynstat_salt_sd              =   2.7014805184969E-01
(PID.TID 0000.0001) %MON dynstat_salt_del2            =   3.9667542439471E-07
(PID.TID 0000.0001) %MON advcfl_uvel_max              =   7.4691660287209E-04
(PID.TID 0000.0001) %MON advcfl_vvel_max              =   6.9274748059593E-04
(PID.TID 0000.0001) %MON advcfl_wvel_max              =   1.3651651979036E-03
(PID.TID 0000.0001) %MON advcfl_W_hf_max              =   1.3651651979036E-03
(PID.TID 0000.0001) %MON pe_b_mean                    =  -6.8266298010943E-01
(PID.TID 0000.0001) %MON ke_max                       =   1.7241055742266E-05
(PID.TID 0000.0001) %MON ke_mean                      =   3.1609219512534E-08
(PID.TID 0000.0001) %MON ke_vol                       =   4.6182927121122E+12
(PID.TID 0000.0001) // =======================================================
(PID.TID 0000.0001) // End MONITOR dynamic field statistics
(PID.TID 0000.0001) // =======================================================
(PID.TID 0000.0001) // =======================================================
(PID.TID 0000.0001) // Begin OBCS MONITOR field statistics
(PID.TID 0000.0001) // =======================================================
(PID.TID 0000.0001) %MON obc_N_vVel_max               =  -6.6826295183907E-08
(PID.TID 0000.0001) %MON obc_N_vVel_min               =  -6.6826295183908E-08
(PID.TID 0000.0001) %MON obc_N_vVel_mean              =  -6.6826295183908E-08
(PID.TID 0000.0001) %MON obc_N_vVel_sd                =  -4.1809627976714E-29
(PID.TID 0000.0001) %MON obc_N_vVel_Int               =  -4.4105354821379E+00
(PID.TID 0000.0001) // =======================================================
(PID.TID 0000.0001) // End OBCS MONITOR field statistics
(PID.TID 0000.0001) // =======================================================
 cg2d: Sum(rhs),rhsMax =   3.01136550580040E+00  4.53049000613229E+02
(PID.TID 0000.0001)      cg2d_init_res =   1.32827858348432E-06
(PID.TID 0000.0001)      cg2d_iters(min,last) =      -1      71
(PID.TID 0000.0001)      cg2d_last_res =   8.39911416767832E-12
(PID.TID 0000.0001) // =======================================================
(PID.TID 0000.0001) // Begin MONITOR dynamic field statistics
(PID.TID 0000.0001) // =======================================================
(PID.TID 0000.0001) %MON time_tsnumber                =                   624
(PID.TID 0000.0001) %MON time_secondsf                =   6.2400000000000E+04
(PID.TID 0000.0001) %MON dynstat_eta_max              =   5.7972028353826E+00
(PID.TID 0000.0001) %MON dynstat_eta_min              =  -1.4175390347756E+01
(PID.TID 0000.0001) %MON dynstat_eta_mean             =  -2.5264743201556E+00
(PID.TID 0000.0001) %MON dynstat_eta_sd               =   4.9417873977138E+00
(PID.TID 0000.0001) %MON dynstat_eta_del2             =   1.9058149807571E-01
(PID.TID 0000.0001) %MON dynstat_uvel_max             =   2.5982847345567E-03
(PID.TID 0000.0001) %MON dynstat_uvel_min             =  -7.4917532359313E-03
(PID.TID 0000.0001) %MON dynstat_uvel_mean            =  -1.4419458532884E-09
(PID.TID 0000.0001) %MON dynstat_uvel_sd              =   2.1625504551538E-04
(PID.TID 0000.0001) %MON dynstat_uvel_del2            =   3.7696724547695E-07
(PID.TID 0000.0001) %MON dynstat_vvel_max             =   6.9429664954663E-03
(PID.TID 0000.0001) %MON dynstat_vvel_min             =  -2.1115963943963E-03
(PID.TID 0000.0001) %MON dynstat_vvel_mean            =  -5.4217583804917E-08
(PID.TID 0000.0001) %MON dynstat_vvel_sd              =   1.3247354258122E-04
(PID.TID 0000.0001) %MON dynstat_vvel_del2            =   3.6121609490925E-07
(PID.TID 0000.0001) %MON dynstat_wvel_max             =   2.7158776624855E-04
(PID.TID 0000.0001) %MON dynstat_wvel_min             =  -2.7380608579501E-04
(PID.TID 0000.0001) %MON dynstat_wvel_mean            =   1.6145475255622E-10
(PID.TID 0000.0001) %MON dynstat_wvel_sd              =   9.6821335634329E-06
(PID.TID 0000.0001) %MON dynstat_wvel_del2            =   4.1199194097296E-08
(PID.TID 0000.0001) %MON dynstat_theta_max            =   1.2000000000000E+00
(PID.TID 0000.0001) %MON dynstat_theta_min            =  -1.0000000000000E+00
(PID.TID 0000.0001) %MON dynstat_theta_mean           =   5.6536733301760E-01
(PID.TID 0000.0001) %MON dynstat_theta_sd             =   8.4903520620846E-01
(PID.TID 0000.0001) %MON dynstat_theta_del2           =   1.0322230964431E-06
(PID.TID 0000.0001) %MON dynstat_salt_max             =   3.4700000000000E+01
(PID.TID 0000.0001) %MON dynstat_salt_min             =   3.4000000000000E+01
(PID.TID 0000.0001) %MON dynstat_salt_mean            =   3.4498060589383E+01
(PID.TID 0000.0001) %MON dynstat_salt_sd              =   2.7014802120683E-01
(PID.TID 0000.0001) %MON dynstat_salt_del2            =   3.9748707390889E-07
(PID.TID 0000.0001) %MON advcfl_uvel_max              =   7.4917532359313E-04
(PID.TID 0000.0001) %MON advcfl_vvel_max              =   6.9429664954663E-04
(PID.TID 0000.0001) %MON advcfl_wvel_max              =   1.3690304289751E-03
(PID.TID 0000.0001) %MON advcfl_W_hf_max              =   1.3690304289751E-03
(PID.TID 0000.0001) %MON pe_b_mean                    =  -6.8266227030387E-01
(PID.TID 0000.0001) %MON ke_max                       =   1.7343785134845E-05
(PID.TID 0000.0001) %MON ke_mean                      =   3.1717902395485E-08
(PID.TID 0000.0001) %MON ke_vol                       =   4.6182927273183E+12
(PID.TID 0000.0001) // =======================================================
(PID.TID 0000.0001) // End MONITOR dynamic field statistics
(PID.TID 0000.0001) // =======================================================
(PID.TID 0000.0001) // =======================================================
(PID.TID 0000.0001) // Begin OBCS MONITOR field statistics
(PID.TID 0000.0001) // =======================================================
(PID.TID 0000.0001) %MON obc_N_vVel_max               =  -6.6478927964863E-08
(PID.TID 0000.0001) %MON obc_N_vVel_min               =  -6.6478927964863E-08
(PID.TID 0000.0001) %MON obc_N_vVel_mean              =  -6.6478927964863E-08
(PID.TID 0000.0001) %MON obc_N_vVel_sd                =  -1.4988357199199E-29
(PID.TID 0000.0001) %MON obc_N_vVel_Int               =  -4.3876092456809E+00
(PID.TID 0000.0001) // =======================================================
(PID.TID 0000.0001) // End OBCS MONITOR field statistics
(PID.TID 0000.0001) // =======================================================
 cg2d: Sum(rhs),rhsMax =   3.01136251384491E+00  4.53048990834133E+02
(PID.TID 0000.0001)      cg2d_init_res =   1.32405712987655E-06
(PID.TID 0000.0001)      cg2d_iters(min,last) =      -1      71
(PID.TID 0000.0001)      cg2d_last_res =   8.41676233005885E-12
(PID.TID 0000.0001) // =======================================================
(PID.TID 0000.0001) // Begin MONITOR dynamic field statistics
(PID.TID 0000.0001) // =======================================================
(PID.TID 0000.0001) %MON time_tsnumber                =                   625
(PID.TID 0000.0001) %MON time_secondsf                =   6.2500000000000E+04
(PID.TID 0000.0001) %MON dynstat_eta_max              =   5.7972056625577E+00
(PID.TID 0000.0001) %MON dynstat_eta_min              =  -1.4175385413408E+01
(PID.TID 0000.0001) %MON dynstat_eta_mean             =  -2.5264717554318E+00
(PID.TID 0000.0001) %MON dynstat_eta_sd               =   4.9417865989386E+00
(PID.TID 0000.0001) %MON dynstat_eta_del2             =   1.9058150264925E-01
(PID.TID 0000.0001) %MON dynstat_uvel_max             =   2.6026725672992E-03
(PID.TID 0000.0001) %MON dynstat_uvel_min             =  -7.5143958777284E-03
(PID.TID 0000.0001) %MON dynstat_uvel_mean            =  -1.4329013614144E-09
(PID.TID 0000.0001) %MON dynstat_uvel_sd              =   2.1667958550875E-04
(PID.TID 0000.0001) %MON dynstat_uvel_del2            =   3.7770411337570E-07
(PID.TID 0000.0001) %MON dynstat_vvel_max             =   6.9584813293369E-03
(PID.TID 0000.0001) %MON dynstat_vvel_min             =  -2.1184847253242E-03
(PID.TID 0000.0001) %MON dynstat_vvel_mean            =  -5.3971158534921E-08
(PID.TID 0000.0001) %MON dynstat_vvel_sd              =   1.3264485956473E-04
(PID.TID 0000.0001) %MON dynstat_vvel_del2            =   3.6180563954436E-07
(PID.TID 0000.0001) %MON dynstat_wvel_max             =   2.7259464306716E-04
(PID.TID 0000.0001) %MON dynstat_wvel_min             =  -2.7457992298306E-04
(PID.TID 0000.0001) %MON dynstat_wvel_mean            =   1.6092135243078E-10
(PID.TID 0000.0001) %MON dynstat_wvel_sd              =   9.6384774243156E-06
(PID.TID 0000.0001) %MON dynstat_wvel_del2            =   4.0722951690856E-08
(PID.TID 0000.0001) %MON dynstat_theta_max            =   1.2000000000000E+00
(PID.TID 0000.0001) %MON dynstat_theta_min            =  -1.0000000000000E+00
(PID.TID 0000.0001) %MON dynstat_theta_mean           =   5.6536705251500E-01
(PID.TID 0000.0001) %MON dynstat_theta_sd             =   8.4903511742948E-01
(PID.TID 0000.0001) %MON dynstat_theta_del2           =   1.0340161111808E-06
(PID.TID 0000.0001) %MON dynstat_salt_max             =   3.4700000000000E+01
(PID.TID 0000.0001) %MON dynstat_salt_min             =   3.4000000000000E+01
(PID.TID 0000.0001) %MON dynstat_salt_mean            =   3.4498060478042E+01
(PID.TID 0000.0001) %MON dynstat_salt_sd              =   2.7014799049450E-01
(PID.TID 0000.0001) %MON dynstat_salt_del2            =   3.9823676044350E-07
(PID.TID 0000.0001) %MON advcfl_uvel_max              =   7.5143958777284E-04
(PID.TID 0000.0001) %MON advcfl_vvel_max              =   6.9584813293369E-04
(PID.TID 0000.0001) %MON advcfl_wvel_max              =   1.3728996149153E-03
(PID.TID 0000.0001) %MON advcfl_W_hf_max              =   1.3728996149153E-03
(PID.TID 0000.0001) %MON pe_b_mean                    =  -6.8266155965422E-01
(PID.TID 0000.0001) %MON ke_max                       =   1.7447086879824E-05
(PID.TID 0000.0001) %MON ke_mean                      =   3.1830782811928E-08
(PID.TID 0000.0001) %MON ke_vol                       =   4.6182927425383E+12
(PID.TID 0000.0001) // =======================================================
(PID.TID 0000.0001) // End MONITOR dynamic field statistics
(PID.TID 0000.0001) // =======================================================
(PID.TID 0000.0001) // =======================================================
(PID.TID 0000.0001) // Begin OBCS MONITOR field statistics
(PID.TID 0000.0001) // =======================================================
(PID.TID 0000.0001) %MON obc_N_vVel_max               =  -6.6213371388778E-08
(PID.TID 0000.0001) %MON obc_N_vVel_min               =  -6.6213371388778E-08
(PID.TID 0000.0001) %MON obc_N_vVel_mean              =  -6.6213371388778E-08
(PID.TID 0000.0001) %MON obc_N_vVel_sd                =  -7.2575203280333E-29
(PID.TID 0000.0001) %MON obc_N_vVel_Int               =  -4.3700825116594E+00
(PID.TID 0000.0001) // =======================================================
(PID.TID 0000.0001) // End OBCS MONITOR field statistics
(PID.TID 0000.0001) // =======================================================
 cg2d: Sum(rhs),rhsMax =   3.01135951876838E+00  4.53048981068338E+02
(PID.TID 0000.0001)      cg2d_init_res =   1.32460816424913E-06
(PID.TID 0000.0001)      cg2d_iters(min,last) =      -1      71
(PID.TID 0000.0001)      cg2d_last_res =   8.43019130839150E-12
(PID.TID 0000.0001) // =======================================================
(PID.TID 0000.0001) // Begin MONITOR dynamic field statistics
(PID.TID 0000.0001) // =======================================================
(PID.TID 0000.0001) %MON time_tsnumber                =                   626
(PID.TID 0000.0001) %MON time_secondsf                =   6.2600000000000E+04
(PID.TID 0000.0001) %MON dynstat_eta_max              =   5.7972084899207E+00
(PID.TID 0000.0001) %MON dynstat_eta_min              =  -1.4175380488404E+01
(PID.TID 0000.0001) %MON dynstat_eta_mean             =  -2.5264691881638E+00
(PID.TID 0000.0001) %MON dynstat_eta_sd               =   4.9417857993593E+00
(PID.TID 0000.0001) %MON dynstat_eta_del2             =   1.9058150723051E-01
(PID.TID 0000.0001) %MON dynstat_uvel_max             =   2.6070684478903E-03
(PID.TID 0000.0001) %MON dynstat_uvel_min             =  -7.5370940766435E-03
(PID.TID 0000.0001) %MON dynstat_uvel_mean            =  -1.4237833829851E-09
(PID.TID 0000.0001) %MON dynstat_uvel_sd              =   2.1710576400215E-04
(PID.TID 0000.0001) %MON dynstat_uvel_del2            =   3.7844336021200E-07
(PID.TID 0000.0001) %MON dynstat_vvel_max             =   6.9740193709202E-03
(PID.TID 0000.0001) %MON dynstat_vvel_min             =  -2.1253829522134E-03
(PID.TID 0000.0001) %MON dynstat_vvel_mean            =  -5.3822206256571E-08
(PID.TID 0000.0001) %MON dynstat_vvel_sd              =   1.3284410331574E-04
(PID.TID 0000.0001) %MON dynstat_vvel_del2            =   3.6256317514298E-07
(PID.TID 0000.0001) %MON dynstat_wvel_max             =   2.7360368711731E-04
(PID.TID 0000.0001) %MON dynstat_wvel_min             =  -2.7535455348976E-04
(PID.TID 0000.0001) %MON dynstat_wvel_mean            =   1.6035825478916E-10
(PID.TID 0000.0001) %MON dynstat_wvel_sd              =   9.6794410631629E-06
(PID.TID 0000.0001) %MON dynstat_wvel_del2            =   4.0681969307008E-08
(PID.TID 0000.0001) %MON dynstat_theta_max            =   1.2000000000000E+00
(PID.TID 0000.0001) %MON dynstat_theta_min            =  -1.0000000000000E+00
(PID.TID 0000.0001) %MON dynstat_theta_mean           =   5.6536677167811E-01
(PID.TID 0000.0001) %MON dynstat_theta_sd             =   8.4903502845753E-01
(PID.TID 0000.0001) %MON dynstat_theta_del2           =   1.0355684772137E-06
(PID.TID 0000.0001) %MON dynstat_salt_max             =   3.4700000000000E+01
(PID.TID 0000.0001) %MON dynstat_salt_min             =   3.4000000000000E+01
(PID.TID 0000.0001) %MON dynstat_salt_mean            =   3.4498060366569E+01
(PID.TID 0000.0001) %MON dynstat_salt_sd              =   2.7014795970495E-01
(PID.TID 0000.0001) %MON dynstat_salt_del2            =   3.9892362411695E-07
(PID.TID 0000.0001) %MON advcfl_uvel_max              =   7.5370940766435E-04
(PID.TID 0000.0001) %MON advcfl_vvel_max              =   6.9740193709202E-04
(PID.TID 0000.0001) %MON advcfl_wvel_max              =   1.3767727674488E-03
(PID.TID 0000.0001) %MON advcfl_W_hf_max              =   1.3767727674488E-03
(PID.TID 0000.0001) %MON pe_b_mean                    =  -6.8266084813721E-01
(PID.TID 0000.0001) %MON ke_max                       =   1.7550963875120E-05
(PID.TID 0000.0001) %MON ke_mean                      =   3.1947927860817E-08
(PID.TID 0000.0001) %MON ke_vol                       =   4.6182927577727E+12
(PID.TID 0000.0001) // =======================================================
(PID.TID 0000.0001) // End MONITOR dynamic field statistics
(PID.TID 0000.0001) // =======================================================
(PID.TID 0000.0001) // =======================================================
(PID.TID 0000.0001) // Begin OBCS MONITOR field statistics
(PID.TID 0000.0001) // =======================================================
(PID.TID 0000.0001) %MON obc_N_vVel_max               =  -6.6034629702294E-08
(PID.TID 0000.0001) %MON obc_N_vVel_min               =  -6.6034629702295E-08
(PID.TID 0000.0001) %MON obc_N_vVel_mean              =  -6.6034629702294E-08
(PID.TID 0000.0001) %MON obc_N_vVel_sd                =   1.4835504459123E-14
(PID.TID 0000.0001) %MON obc_N_vVel_Int               =  -4.3582855603514E+00
(PID.TID 0000.0001) // =======================================================
(PID.TID 0000.0001) // End OBCS MONITOR field statistics
(PID.TID 0000.0001) // =======================================================
 cg2d: Sum(rhs),rhsMax =   3.01135652042433E+00  4.53048971318698E+02
(PID.TID 0000.0001)      cg2d_init_res =   1.32993075065912E-06
(PID.TID 0000.0001)      cg2d_iters(min,last) =      -1      71
(PID.TID 0000.0001)      cg2d_last_res =   8.44187957108639E-12
(PID.TID 0000.0001) // =======================================================
(PID.TID 0000.0001) // Begin MONITOR dynamic field statistics
(PID.TID 0000.0001) // =======================================================
(PID.TID 0000.0001) %MON time_tsnumber                =                   627
(PID.TID 0000.0001) %MON time_secondsf                =   6.2700000000000E+04
(PID.TID 0000.0001) %MON dynstat_eta_max              =   5.7972113174931E+00
(PID.TID 0000.0001) %MON dynstat_eta_min              =  -1.4175375572477E+01
(PID.TID 0000.0001) %MON dynstat_eta_mean             =  -2.5264666182446E+00
(PID.TID 0000.0001) %MON dynstat_eta_sd               =   4.9417849989430E+00
(PID.TID 0000.0001) %MON dynstat_eta_del2             =   1.9058151181963E-01
(PID.TID 0000.0001) %MON dynstat_uvel_max             =   2.6114723438724E-03
(PID.TID 0000.0001) %MON dynstat_uvel_min             =  -7.5598479550854E-03
(PID.TID 0000.0001) %MON dynstat_uvel_mean            =  -1.4147501449670E-09
(PID.TID 0000.0001) %MON dynstat_uvel_sd              =   2.1753359624008E-04
(PID.TID 0000.0001) %MON dynstat_uvel_del2            =   3.7918503712807E-07
(PID.TID 0000.0001) %MON dynstat_vvel_max             =   6.9895806839584E-03
(PID.TID 0000.0001) %MON dynstat_vvel_min             =  -2.1322910887047E-03
(PID.TID 0000.0001) %MON dynstat_vvel_mean            =  -5.3770814571796E-08
(PID.TID 0000.0001) %MON dynstat_vvel_sd              =   1.3306986186139E-04
(PID.TID 0000.0001) %MON dynstat_vvel_del2            =   3.6347783097012E-07
(PID.TID 0000.0001) %MON dynstat_wvel_max             =   2.7461490378589E-04
(PID.TID 0000.0001) %MON dynstat_wvel_min             =  -2.7612997972557E-04
(PID.TID 0000.0001) %MON dynstat_wvel_mean            =   1.5978826726146E-10
(PID.TID 0000.0001) %MON dynstat_wvel_sd              =   9.7991297738557E-06
(PID.TID 0000.0001) %MON dynstat_wvel_del2            =   4.1071653494792E-08
(PID.TID 0000.0001) %MON dynstat_theta_max            =   1.2000000000000E+00
(PID.TID 0000.0001) %MON dynstat_theta_min            =  -1.0000000000000E+00
(PID.TID 0000.0001) %MON dynstat_theta_mean           =   5.6536649052443E-01
(PID.TID 0000.0001) %MON dynstat_theta_sd             =   8.4903493926668E-01
(PID.TID 0000.0001) %MON dynstat_theta_del2           =   1.0368917194394E-06
(PID.TID 0000.0001) %MON dynstat_salt_max             =   3.4700000000000E+01
(PID.TID 0000.0001) %MON dynstat_salt_min             =   3.4000000000000E+01
(PID.TID 0000.0001) %MON dynstat_salt_mean            =   3.4498060254971E+01
(PID.TID 0000.0001) %MON dynstat_salt_sd              =   2.7014792882990E-01
(PID.TID 0000.0001) %MON dynstat_salt_del2            =   3.9955076327089E-07
(PID.TID 0000.0001) %MON advcfl_uvel_max              =   7.5598479550854E-04
(PID.TID 0000.0001) %MON advcfl_vvel_max              =   6.9895806839584E-04
(PID.TID 0000.0001) %MON advcfl_wvel_max              =   1.3806498986279E-03
(PID.TID 0000.0001) %MON advcfl_W_hf_max              =   1.3806498986279E-03
(PID.TID 0000.0001) %MON pe_b_mean                    =  -6.8266013572973E-01
(PID.TID 0000.0001) %MON ke_max                       =   1.7655419030603E-05
(PID.TID 0000.0001) %MON ke_mean                      =   3.2069171657840E-08
(PID.TID 0000.0001) %MON ke_vol                       =   4.6182927730223E+12
(PID.TID 0000.0001) // =======================================================
(PID.TID 0000.0001) // End MONITOR dynamic field statistics
(PID.TID 0000.0001) // =======================================================
(PID.TID 0000.0001) // =======================================================
(PID.TID 0000.0001) // Begin OBCS MONITOR field statistics
(PID.TID 0000.0001) // =======================================================
(PID.TID 0000.0001) %MON obc_N_vVel_max               =  -6.5944661427232E-08
(PID.TID 0000.0001) %MON obc_N_vVel_min               =  -6.5944661427233E-08
(PID.TID 0000.0001) %MON obc_N_vVel_mean              =  -6.5944661427232E-08
(PID.TID 0000.0001) %MON obc_N_vVel_sd                =   2.6645352591004E-15
(PID.TID 0000.0001) %MON obc_N_vVel_Int               =  -4.3523476541973E+00
(PID.TID 0000.0001) // =======================================================
(PID.TID 0000.0001) // End OBCS MONITOR field statistics
(PID.TID 0000.0001) // =======================================================
 cg2d: Sum(rhs),rhsMax =   3.01135351866833E+00  4.53048961587841E+02
(PID.TID 0000.0001)      cg2d_init_res =   1.33965866254045E-06
(PID.TID 0000.0001)      cg2d_iters(min,last) =      -1      71
(PID.TID 0000.0001)      cg2d_last_res =   8.45394428186323E-12
(PID.TID 0000.0001) // =======================================================
(PID.TID 0000.0001) // Begin MONITOR dynamic field statistics
(PID.TID 0000.0001) // =======================================================
(PID.TID 0000.0001) %MON time_tsnumber                =                   628
(PID.TID 0000.0001) %MON time_secondsf                =   6.2800000000000E+04
(PID.TID 0000.0001) %MON dynstat_eta_max              =   5.7972141453041E+00
(PID.TID 0000.0001) %MON dynstat_eta_min              =  -1.4175370665367E+01
(PID.TID 0000.0001) %MON dynstat_eta_mean             =  -2.5264640455677E+00
(PID.TID 0000.0001) %MON dynstat_eta_sd               =   4.9417841976600E+00
(PID.TID 0000.0001) %MON dynstat_eta_del2             =   1.9058151641676E-01
(PID.TID 0000.0001) %MON dynstat_uvel_max             =   2.6158842222301E-03
(PID.TID 0000.0001) %MON dynstat_uvel_min             =  -7.5826576360187E-03
(PID.TID 0000.0001) %MON dynstat_uvel_mean            =  -1.4059431368274E-09
(PID.TID 0000.0001) %MON dynstat_uvel_sd              =   2.1796309897891E-04
(PID.TID 0000.0001) %MON dynstat_uvel_del2            =   3.7992921082414E-07
(PID.TID 0000.0001) %MON dynstat_vvel_max             =   7.0051653322540E-03
(PID.TID 0000.0001) %MON dynstat_vvel_min             =  -2.1392091483969E-03
(PID.TID 0000.0001) %MON dynstat_vvel_mean            =  -5.3813811650434E-08
(PID.TID 0000.0001) %MON dynstat_vvel_sd              =   1.3331908343319E-04
(PID.TID 0000.0001) %MON dynstat_vvel_del2            =   3.6452835286286E-07
(PID.TID 0000.0001) %MON dynstat_wvel_max             =   2.7562829844158E-04
(PID.TID 0000.0001) %MON dynstat_wvel_min             =  -2.7690620418451E-04
(PID.TID 0000.0001) %MON dynstat_wvel_mean            =   1.5923411660567E-10
(PID.TID 0000.0001) %MON dynstat_wvel_sd              =   9.9849196611378E-06
(PID.TID 0000.0001) %MON dynstat_wvel_del2            =   4.1845996117034E-08
(PID.TID 0000.0001) %MON dynstat_theta_max            =   1.2000000000000E+00
(PID.TID 0000.0001) %MON dynstat_theta_min            =  -1.0000000000000E+00
(PID.TID 0000.0001) %MON dynstat_theta_mean           =   5.6536620907153E-01
(PID.TID 0000.0001) %MON dynstat_theta_sd             =   8.4903484982328E-01
(PID.TID 0000.0001) %MON dynstat_theta_del2           =   1.0380121892705E-06
(PID.TID 0000.0001) %MON dynstat_salt_max             =   3.4700000000000E+01
(PID.TID 0000.0001) %MON dynstat_salt_min             =   3.4000000000000E+01
(PID.TID 0000.0001) %MON dynstat_salt_mean            =   3.4498060143252E+01
(PID.TID 0000.0001) %MON dynstat_salt_sd              =   2.7014789785860E-01
(PID.TID 0000.0001) %MON dynstat_salt_del2            =   4.0012493374483E-07
(PID.TID 0000.0001) %MON advcfl_uvel_max              =   7.5826576360187E-04
(PID.TID 0000.0001) %MON advcfl_vvel_max              =   7.0051653322540E-04
(PID.TID 0000.0001) %MON advcfl_wvel_max              =   1.3845310209225E-03
(PID.TID 0000.0001) %MON advcfl_W_hf_max              =   1.3845310209225E-03
(PID.TID 0000.0001) %MON pe_b_mean                    =  -6.8265942240946E-01
(PID.TID 0000.0001) %MON ke_max                       =   1.7760455271520E-05
(PID.TID 0000.0001) %MON ke_mean                      =   3.2194130976230E-08
(PID.TID 0000.0001) %MON ke_vol                       =   4.6182927882876E+12
(PID.TID 0000.0001) // =======================================================
(PID.TID 0000.0001) // End MONITOR dynamic field statistics
(PID.TID 0000.0001) // =======================================================
(PID.TID 0000.0001) // =======================================================
(PID.TID 0000.0001) // Begin OBCS MONITOR field statistics
(PID.TID 0000.0001) // =======================================================
(PID.TID 0000.0001) %MON obc_N_vVel_max               =  -6.5942426775862E-08
(PID.TID 0000.0001) %MON obc_N_vVel_min               =  -6.5942426775864E-08
(PID.TID 0000.0001) %MON obc_N_vVel_mean              =  -6.5942426775864E-08
(PID.TID 0000.0001) %MON obc_N_vVel_sd                =  -3.6208715549644E-28
(PID.TID 0000.0001) %MON obc_N_vVel_Int               =  -4.3522001672070E+00
(PID.TID 0000.0001) // =======================================================
(PID.TID 0000.0001) // End OBCS MONITOR field statistics
(PID.TID 0000.0001) // =======================================================
 cg2d: Sum(rhs),rhsMax =   3.01135051336286E+00  4.53048951878176E+02
(PID.TID 0000.0001)      cg2d_init_res =   1.35309389358982E-06
(PID.TID 0000.0001)      cg2d_iters(min,last) =      -1      71
(PID.TID 0000.0001)      cg2d_last_res =   8.46780764672773E-12
(PID.TID 0000.0001) // =======================================================
(PID.TID 0000.0001) // Begin MONITOR dynamic field statistics
(PID.TID 0000.0001) // =======================================================
(PID.TID 0000.0001) %MON time_tsnumber                =                   629
(PID.TID 0000.0001) %MON time_secondsf                =   6.2900000000000E+04
(PID.TID 0000.0001) %MON dynstat_eta_max              =   5.7972169733554E+00
(PID.TID 0000.0001) %MON dynstat_eta_min              =  -1.4175365766830E+01
(PID.TID 0000.0001) %MON dynstat_eta_mean             =  -2.5264614700312E+00
(PID.TID 0000.0001) %MON dynstat_eta_sd               =   4.9417833954849E+00
(PID.TID 0000.0001) %MON dynstat_eta_del2             =   1.9058152102213E-01
(PID.TID 0000.0001) %MON dynstat_uvel_max             =   2.6203040496870E-03
(PID.TID 0000.0001) %MON dynstat_uvel_min             =  -7.6055232413355E-03
(PID.TID 0000.0001) %MON dynstat_uvel_mean            =  -1.3974807775868E-09
(PID.TID 0000.0001) %MON dynstat_uvel_sd              =   2.1839429007886E-04
(PID.TID 0000.0001) %MON dynstat_uvel_del2            =   3.8067595853843E-07
(PID.TID 0000.0001) %MON dynstat_vvel_max             =   7.0207733797976E-03
(PID.TID 0000.0001) %MON dynstat_vvel_min             =  -2.1461371446829E-03
(PID.TID 0000.0001) %MON dynstat_vvel_mean            =  -5.3944943996346E-08
(PID.TID 0000.0001) %MON dynstat_vvel_sd              =   1.3358731992515E-04
(PID.TID 0000.0001) %MON dynstat_vvel_del2            =   3.6568468924051E-07
(PID.TID 0000.0001) %MON dynstat_wvel_max             =   2.7664387652424E-04
(PID.TID 0000.0001) %MON dynstat_wvel_min             =  -2.7768322938515E-04
(PID.TID 0000.0001) %MON dynstat_wvel_mean            =   1.5871740536490E-10
(PID.TID 0000.0001) %MON dynstat_wvel_sd              =   1.0219395046231E-05
(PID.TID 0000.0001) %MON dynstat_wvel_del2            =   4.2925852609000E-08
(PID.TID 0000.0001) %MON dynstat_theta_max            =   1.2000000000000E+00
(PID.TID 0000.0001) %MON dynstat_theta_min            =  -1.0000000000000E+00
(PID.TID 0000.0001) %MON dynstat_theta_mean           =   5.6536592733683E-01
(PID.TID 0000.0001) %MON dynstat_theta_sd             =   8.4903476010879E-01
(PID.TID 0000.0001) %MON dynstat_theta_del2           =   1.0389677757475E-06
(PID.TID 0000.0001) %MON dynstat_salt_max             =   3.4700000000000E+01
(PID.TID 0000.0001) %MON dynstat_salt_min             =   3.4000000000000E+01
(PID.TID 0000.0001) %MON dynstat_salt_mean            =   3.4498060031418E+01
(PID.TID 0000.0001) %MON dynstat_salt_sd              =   2.7014786678497E-01
(PID.TID 0000.0001) %MON dynstat_salt_del2            =   4.0065635783189E-07
(PID.TID 0000.0001) %MON advcfl_uvel_max              =   7.6055232413355E-04
(PID.TID 0000.0001) %MON advcfl_vvel_max              =   7.0207733797976E-04
(PID.TID 0000.0001) %MON advcfl_wvel_max              =   1.3884161469258E-03
(PID.TID 0000.0001) %MON advcfl_W_hf_max              =   1.3884161469258E-03
(PID.TID 0000.0001) %MON pe_b_mean                    =  -6.8265870815559E-01
(PID.TID 0000.0001) %MON ke_max                       =   1.7866075530699E-05
(PID.TID 0000.0001) %MON ke_mean                      =   3.2322235096192E-08
(PID.TID 0000.0001) %MON ke_vol                       =   4.6182928035693E+12
(PID.TID 0000.0001) // =======================================================
(PID.TID 0000.0001) // End MONITOR dynamic field statistics
(PID.TID 0000.0001) // =======================================================
(PID.TID 0000.0001) // =======================================================
(PID.TID 0000.0001) // Begin OBCS MONITOR field statistics
(PID.TID 0000.0001) // =======================================================
(PID.TID 0000.0001) %MON obc_N_vVel_max               =  -6.6023950818605E-08
(PID.TID 0000.0001) %MON obc_N_vVel_min               =  -6.6023950818605E-08
(PID.TID 0000.0001) %MON obc_N_vVel_mean              =  -6.6023950818605E-08
(PID.TID 0000.0001) %MON obc_N_vVel_sd                =   9.6888826869408E-15
(PID.TID 0000.0001) %MON obc_N_vVel_Int               =  -4.3575807540280E+00
(PID.TID 0000.0001) // =======================================================
(PID.TID 0000.0001) // End OBCS MONITOR field statistics
(PID.TID 0000.0001) // =======================================================
 cg2d: Sum(rhs),rhsMax =   3.01134750438178E+00  4.53048942191820E+02
(PID.TID 0000.0001)      cg2d_init_res =   1.36928721733285E-06
(PID.TID 0000.0001)      cg2d_iters(min,last) =      -1      71
(PID.TID 0000.0001)      cg2d_last_res =   8.48429635663294E-12
(PID.TID 0000.0001) // =======================================================
(PID.TID 0000.0001) // Begin MONITOR dynamic field statistics
(PID.TID 0000.0001) // =======================================================
(PID.TID 0000.0001) %MON time_tsnumber                =                   630
(PID.TID 0000.0001) %MON time_secondsf                =   6.3000000000000E+04
(PID.TID 0000.0001) %MON dynstat_eta_max              =   5.7972198016413E+00
(PID.TID 0000.0001) %MON dynstat_eta_min              =  -1.4175360876643E+01
(PID.TID 0000.0001) %MON dynstat_eta_mean             =  -2.5264588915410E+00
(PID.TID 0000.0001) %MON dynstat_eta_sd               =   4.9417825923965E+00
(PID.TID 0000.0001) %MON dynstat_eta_del2             =   1.9058152563587E-01
(PID.TID 0000.0001) %MON dynstat_uvel_max             =   2.6247317925563E-03
(PID.TID 0000.0001) %MON dynstat_uvel_min             =  -7.6284448929176E-03
(PID.TID 0000.0001) %MON dynstat_uvel_mean            =  -1.3894696708410E-09
(PID.TID 0000.0001) %MON dynstat_uvel_sd              =   2.1882718806040E-04
(PID.TID 0000.0001) %MON dynstat_uvel_del2            =   3.8142536177639E-07
(PID.TID 0000.0001) %MON dynstat_vvel_max             =   7.0364048906792E-03
(PID.TID 0000.0001) %MON dynstat_vvel_min             =  -2.1530750909511E-03
(PID.TID 0000.0001) %MON dynstat_vvel_mean            =  -5.4155090695659E-08
(PID.TID 0000.0001) %MON dynstat_vvel_sd              =   1.3386906085275E-04
(PID.TID 0000.0001) %MON dynstat_vvel_del2            =   3.6691018048106E-07
(PID.TID 0000.0001) %MON dynstat_wvel_max             =   2.7766164359115E-04
(PID.TID 0000.0001) %MON dynstat_wvel_min             =  -2.7846105791756E-04
(PID.TID 0000.0001) %MON dynstat_wvel_mean            =   1.5825810691859E-10
(PID.TID 0000.0001) %MON dynstat_wvel_sd              =   1.0482633617922E-05
(PID.TID 0000.0001) %MON dynstat_wvel_del2            =   4.4211578206932E-08
(PID.TID 0000.0001) %MON dynstat_theta_max            =   1.2000000000000E+00
(PID.TID 0000.0001) %MON dynstat_theta_min            =  -1.0000000000000E+00
(PID.TID 0000.0001) %MON dynstat_theta_mean           =   5.6536564533732E-01
(PID.TID 0000.0001) %MON dynstat_theta_sd             =   8.4903467011837E-01
(PID.TID 0000.0001) %MON dynstat_theta_del2           =   1.0398063397898E-06
(PID.TID 0000.0001) %MON dynstat_salt_max             =   3.4700000000000E+01
(PID.TID 0000.0001) %MON dynstat_salt_min             =   3.4000000000000E+01
(PID.TID 0000.0001) %MON dynstat_salt_mean            =   3.4498059919475E+01
(PID.TID 0000.0001) %MON dynstat_salt_sd              =   2.7014783560768E-01
(PID.TID 0000.0001) %MON dynstat_salt_del2            =   4.0115764000233E-07
(PID.TID 0000.0001) %MON advcfl_uvel_max              =   7.6284448929176E-04
(PID.TID 0000.0001) %MON advcfl_vvel_max              =   7.0364048906792E-04
(PID.TID 0000.0001) %MON advcfl_wvel_max              =   1.3923052895878E-03
(PID.TID 0000.0001) %MON advcfl_W_hf_max              =   1.3923052895878E-03
(PID.TID 0000.0001) %MON pe_b_mean                    =  -6.8265799294958E-01
(PID.TID 0000.0001) %MON ke_max                       =   1.7972282753431E-05
(PID.TID 0000.0001) %MON ke_mean                      =   3.2452767763863E-08
(PID.TID 0000.0001) %MON ke_vol                       =   4.6182928188680E+12
(PID.TID 0000.0001) // =======================================================
(PID.TID 0000.0001) // End MONITOR dynamic field statistics
(PID.TID 0000.0001) // =======================================================
(PID.TID 0000.0001) // =======================================================
(PID.TID 0000.0001) // Begin OBCS MONITOR field statistics
(PID.TID 0000.0001) // =======================================================
(PID.TID 0000.0001) %MON obc_N_vVel_max               =  -6.6182547390499E-08
(PID.TID 0000.0001) %MON obc_N_vVel_min               =  -6.6182547390501E-08
(PID.TID 0000.0001) %MON obc_N_vVel_mean              =  -6.6182547390501E-08
(PID.TID 0000.0001) %MON obc_N_vVel_sd                =  -2.0115953083136E-28
(PID.TID 0000.0001) %MON obc_N_vVel_Int               =  -4.3680481277731E+00
(PID.TID 0000.0001) // =======================================================
(PID.TID 0000.0001) // End OBCS MONITOR field statistics
(PID.TID 0000.0001) // =======================================================
 cg2d: Sum(rhs),rhsMax =   3.01134449161152E+00  4.53048932530576E+02
(PID.TID 0000.0001)      cg2d_init_res =   1.38711041541305E-06
(PID.TID 0000.0001)      cg2d_iters(min,last) =      -1      71
(PID.TID 0000.0001)      cg2d_last_res =   8.50300510879583E-12
(PID.TID 0000.0001) // =======================================================
(PID.TID 0000.0001) // Begin MONITOR dynamic field statistics
(PID.TID 0000.0001) // =======================================================
(PID.TID 0000.0001) %MON time_tsnumber                =                   631
(PID.TID 0000.0001) %MON time_secondsf                =   6.3100000000000E+04
(PID.TID 0000.0001) %MON dynstat_eta_max              =   5.7972226301400E+00
(PID.TID 0000.0001) %MON dynstat_eta_min              =  -1.4175355994603E+01
(PID.TID 0000.0001) %MON dynstat_eta_mean             =  -2.5264563100119E+00
(PID.TID 0000.0001) %MON dynstat_eta_sd               =   4.9417817883797E+00
(PID.TID 0000.0001) %MON dynstat_eta_del2             =   1.9058153025814E-01
(PID.TID 0000.0001) %MON dynstat_uvel_max             =   2.6291674167549E-03
(PID.TID 0000.0001) %MON dynstat_uvel_min             =  -7.6514227124553E-03
(PID.TID 0000.0001) %MON dynstat_uvel_mean            =  -1.3820084023847E-09
(PID.TID 0000.0001) %MON dynstat_uvel_sd              =   2.1926181147230E-04
(PID.TID 0000.0001) %MON dynstat_uvel_del2            =   3.8217749994930E-07
(PID.TID 0000.0001) %MON dynstat_vvel_max             =   7.0520599288522E-03
(PID.TID 0000.0001) %MON dynstat_vvel_min             =  -2.1600230004806E-03
(PID.TID 0000.0001) %MON dynstat_vvel_mean            =  -5.4432621961891E-08
(PID.TID 0000.0001) %MON dynstat_vvel_sd              =   1.3415813212703E-04
(PID.TID 0000.0001) %MON dynstat_vvel_del2            =   3.6816416974833E-07
(PID.TID 0000.0001) %MON dynstat_wvel_max             =   2.7868160524349E-04
(PID.TID 0000.0001) %MON dynstat_wvel_min             =  -2.7923969241501E-04
(PID.TID 0000.0001) %MON dynstat_wvel_mean            =   1.5787398873132E-10
(PID.TID 0000.0001) %MON dynstat_wvel_sd              =   1.0754300245951E-05
(PID.TID 0000.0001) %MON dynstat_wvel_del2            =   4.5595929309759E-08
(PID.TID 0000.0001) %MON dynstat_theta_max            =   1.2000000000000E+00
(PID.TID 0000.0001) %MON dynstat_theta_min            =  -1.0000000000000E+00
(PID.TID 0000.0001) %MON dynstat_theta_mean           =   5.6536536308904E-01
(PID.TID 0000.0001) %MON dynstat_theta_sd             =   8.4903457985323E-01
(PID.TID 0000.0001) %MON dynstat_theta_del2           =   1.0405823949462E-06
(PID.TID 0000.0001) %MON dynstat_salt_max             =   3.4700000000000E+01
(PID.TID 0000.0001) %MON dynstat_salt_min             =   3.4000000000000E+01
(PID.TID 0000.0001) %MON dynstat_salt_mean            =   3.4498059807427E+01
(PID.TID 0000.0001) %MON dynstat_salt_sd              =   2.7014780432683E-01
(PID.TID 0000.0001) %MON dynstat_salt_del2            =   4.0164302576589E-07
(PID.TID 0000.0001) %MON advcfl_uvel_max              =   7.6514227124553E-04
(PID.TID 0000.0001) %MON advcfl_vvel_max              =   7.0520599288522E-04
(PID.TID 0000.0001) %MON advcfl_wvel_max              =   1.3961984620750E-03
(PID.TID 0000.0001) %MON advcfl_W_hf_max              =   1.3961984620750E-03
(PID.TID 0000.0001) %MON pe_b_mean                    =  -6.8265727677516E-01
(PID.TID 0000.0001) %MON ke_max                       =   1.8079079896950E-05
(PID.TID 0000.0001) %MON ke_mean                      =   3.2584918262474E-08
(PID.TID 0000.0001) %MON ke_vol                       =   4.6182928341842E+12
(PID.TID 0000.0001) // =======================================================
(PID.TID 0000.0001) // End MONITOR dynamic field statistics
(PID.TID 0000.0001) // =======================================================
(PID.TID 0000.0001) // =======================================================
(PID.TID 0000.0001) // Begin OBCS MONITOR field statistics
(PID.TID 0000.0001) // =======================================================
(PID.TID 0000.0001) %MON obc_N_vVel_max               =  -6.6409091002425E-08
(PID.TID 0000.0001) %MON obc_N_vVel_min               =  -6.6409091002426E-08
(PID.TID 0000.0001) %MON obc_N_vVel_mean              =  -6.6409091002426E-08
(PID.TID 0000.0001) %MON obc_N_vVel_sd                =  -1.5934990285464E-28
(PID.TID 0000.0001) %MON obc_N_vVel_Int               =  -4.3830000061601E+00
(PID.TID 0000.0001) // =======================================================
(PID.TID 0000.0001) // End OBCS MONITOR field statistics
(PID.TID 0000.0001) // =======================================================
 cg2d: Sum(rhs),rhsMax =   3.01134147495711E+00  4.53048922895790E+02
(PID.TID 0000.0001)      cg2d_init_res =   1.40536076661996E-06
(PID.TID 0000.0001)      cg2d_iters(min,last) =      -1      71
(PID.TID 0000.0001)      cg2d_last_res =   8.52323970497081E-12
(PID.TID 0000.0001) // =======================================================
(PID.TID 0000.0001) // Begin MONITOR dynamic field statistics
(PID.TID 0000.0001) // =======================================================
(PID.TID 0000.0001) %MON time_tsnumber                =                   632
(PID.TID 0000.0001) %MON time_secondsf                =   6.3200000000000E+04
(PID.TID 0000.0001) %MON dynstat_eta_max              =   5.7972254587938E+00
(PID.TID 0000.0001) %MON dynstat_eta_min              =  -1.4175351120541E+01
(PID.TID 0000.0001) %MON dynstat_eta_mean             =  -2.5264537253717E+00
(PID.TID 0000.0001) %MON dynstat_eta_sd               =   4.9417809834234E+00
(PID.TID 0000.0001) %MON dynstat_eta_del2             =   1.9058153488904E-01
(PID.TID 0000.0001) %MON dynstat_uvel_max             =   2.6336108880205E-03
(PID.TID 0000.0001) %MON dynstat_uvel_min             =  -7.6744568213805E-03
(PID.TID 0000.0001) %MON dynstat_uvel_mean            =  -1.3751912597024E-09
(PID.TID 0000.0001) %MON dynstat_uvel_sd              =   2.1969817826732E-04
(PID.TID 0000.0001) %MON dynstat_uvel_del2            =   3.8293244368315E-07
(PID.TID 0000.0001) %MON dynstat_vvel_max             =   7.0677385584170E-03
(PID.TID 0000.0001) %MON dynstat_vvel_min             =  -2.1669808866154E-03
(PID.TID 0000.0001) %MON dynstat_vvel_mean            =  -5.4763860279857E-08
(PID.TID 0000.0001) %MON dynstat_vvel_sd              =   1.3444813031933E-04
(PID.TID 0000.0001) %MON dynstat_vvel_del2            =   3.6940483717221E-07
(PID.TID 0000.0001) %MON dynstat_wvel_max             =   2.7970376711096E-04
(PID.TID 0000.0001) %MON dynstat_wvel_min             =  -2.8001913556847E-04
(PID.TID 0000.0001) %MON dynstat_wvel_mean            =   1.5758021938115E-10
(PID.TID 0000.0001) %MON dynstat_wvel_sd              =   1.1015259135473E-05
(PID.TID 0000.0001) %MON dynstat_wvel_del2            =   4.6974456526564E-08
(PID.TID 0000.0001) %MON dynstat_theta_max            =   1.2000000000000E+00
(PID.TID 0000.0001) %MON dynstat_theta_min            =  -1.0000000000000E+00
(PID.TID 0000.0001) %MON dynstat_theta_mean           =   5.6536508060700E-01
(PID.TID 0000.0001) %MON dynstat_theta_sd             =   8.4903448931705E-01
(PID.TID 0000.0001) %MON dynstat_theta_del2           =   1.0413522812848E-06
(PID.TID 0000.0001) %MON dynstat_salt_max             =   3.4700000000000E+01
(PID.TID 0000.0001) %MON dynstat_salt_min             =   3.4000000000000E+01
(PID.TID 0000.0001) %MON dynstat_salt_mean            =   3.4498059695280E+01
(PID.TID 0000.0001) %MON dynstat_salt_sd              =   2.7014777294374E-01
(PID.TID 0000.0001) %MON dynstat_salt_del2            =   4.0212742019176E-07
(PID.TID 0000.0001) %MON advcfl_uvel_max              =   7.6744568213805E-04
(PID.TID 0000.0001) %MON advcfl_vvel_max              =   7.0677385584170E-04
(PID.TID 0000.0001) %MON advcfl_wvel_max              =   1.4000956778423E-03
(PID.TID 0000.0001) %MON advcfl_W_hf_max              =   1.4000956778423E-03
(PID.TID 0000.0001) %MON pe_b_mean                    =  -6.8265655961911E-01
(PID.TID 0000.0001) %MON ke_max                       =   1.8186469929551E-05
(PID.TID 0000.0001) %MON ke_mean                      =   3.2717838104723E-08
(PID.TID 0000.0001) %MON ke_vol                       =   4.6182928495185E+12
(PID.TID 0000.0001) // =======================================================
(PID.TID 0000.0001) // End MONITOR dynamic field statistics
(PID.TID 0000.0001) // =======================================================
(PID.TID 0000.0001) // =======================================================
(PID.TID 0000.0001) // Begin OBCS MONITOR field statistics
(PID.TID 0000.0001) // =======================================================
(PID.TID 0000.0001) %MON obc_N_vVel_max               =  -6.6692341408211E-08
(PID.TID 0000.0001) %MON obc_N_vVel_min               =  -6.6692341408212E-08
(PID.TID 0000.0001) %MON obc_N_vVel_mean              =  -6.6692341408212E-08
(PID.TID 0000.0001) %MON obc_N_vVel_sd                =  -2.3034738432454E-28
(PID.TID 0000.0001) %MON obc_N_vVel_Int               =  -4.4016945329420E+00
(PID.TID 0000.0001) // =======================================================
(PID.TID 0000.0001) // End OBCS MONITOR field statistics
(PID.TID 0000.0001) // =======================================================
 cg2d: Sum(rhs),rhsMax =   3.01133845434249E+00  4.53048913288438E+02
(PID.TID 0000.0001)      cg2d_init_res =   1.42286084984111E-06
(PID.TID 0000.0001)      cg2d_iters(min,last) =      -1      71
(PID.TID 0000.0001)      cg2d_last_res =   8.54493691893429E-12
(PID.TID 0000.0001) // =======================================================
(PID.TID 0000.0001) // Begin MONITOR dynamic field statistics
(PID.TID 0000.0001) // =======================================================
(PID.TID 0000.0001) %MON time_tsnumber                =                   633
(PID.TID 0000.0001) %MON time_secondsf                =   6.3300000000000E+04
(PID.TID 0000.0001) %MON dynstat_eta_max              =   5.7972282875349E+00
(PID.TID 0000.0001) %MON dynstat_eta_min              =  -1.4175346254332E+01
(PID.TID 0000.0001) %MON dynstat_eta_mean             =  -2.5264511375621E+00
(PID.TID 0000.0001) %MON dynstat_eta_sd               =   4.9417801775224E+00
(PID.TID 0000.0001) %MON dynstat_eta_del2             =   1.9058153952867E-01
(PID.TID 0000.0001) %MON dynstat_uvel_max             =   2.6380621716182E-03
(PID.TID 0000.0001) %MON dynstat_uvel_min             =  -7.6975473408112E-03
(PID.TID 0000.0001) %MON dynstat_uvel_mean            =  -1.3691011983888E-09
(PID.TID 0000.0001) %MON dynstat_uvel_sd              =   2.2013630517225E-04
(PID.TID 0000.0001) %MON dynstat_uvel_del2            =   3.8369024969444E-07
(PID.TID 0000.0001) %MON dynstat_vvel_max             =   7.0834408430938E-03
(PID.TID 0000.0001) %MON dynstat_vvel_min             =  -2.1739487628896E-03
(PID.TID 0000.0001) %MON dynstat_vvel_mean            =  -5.5133585389559E-08
(PID.TID 0000.0001) %MON dynstat_vvel_sd              =   1.3473286159172E-04
(PID.TID 0000.0001) %MON dynstat_vvel_del2            =   3.7059205070409E-07
(PID.TID 0000.0001) %MON dynstat_wvel_max             =   2.8072813482889E-04
(PID.TID 0000.0001) %MON dynstat_wvel_min             =  -2.8079939016370E-04
(PID.TID 0000.0001) %MON dynstat_wvel_mean            =   1.5738846006462E-10
(PID.TID 0000.0001) %MON dynstat_wvel_sd              =   1.1248657224960E-05
(PID.TID 0000.0001) %MON dynstat_wvel_del2            =   4.8252532503795E-08
(PID.TID 0000.0001) %MON dynstat_theta_max            =   1.2000000000000E+00
(PID.TID 0000.0001) %MON dynstat_theta_min            =  -1.0000000000000E+00
(PID.TID 0000.0001) %MON dynstat_theta_mean           =   5.6536479790477E-01
(PID.TID 0000.0001) %MON dynstat_theta_sd             =   8.4903439851312E-01
(PID.TID 0000.0001) %MON dynstat_theta_del2           =   1.0421718062239E-06
(PID.TID 0000.0001) %MON dynstat_salt_max             =   3.4700000000000E+01
(PID.TID 0000.0001) %MON dynstat_salt_min             =   3.4000000000000E+01
(PID.TID 0000.0001) %MON dynstat_salt_mean            =   3.4498059583036E+01
(PID.TID 0000.0001) %MON dynstat_salt_sd              =   2.7014774145934E-01
(PID.TID 0000.0001) %MON dynstat_salt_del2            =   4.0262545048322E-07
(PID.TID 0000.0001) %MON advcfl_uvel_max              =   7.6975473408112E-04
(PID.TID 0000.0001) %MON advcfl_vvel_max              =   7.0834408430938E-04
(PID.TID 0000.0001) %MON advcfl_wvel_max              =   1.4039969508185E-03
(PID.TID 0000.0001) %MON advcfl_W_hf_max              =   1.4039969508185E-03
(PID.TID 0000.0001) %MON pe_b_mean                    =  -6.8265584147128E-01
(PID.TID 0000.0001) %MON ke_max                       =   1.8294455830638E-05
(PID.TID 0000.0001) %MON ke_mean                      =   3.2850699443616E-08
(PID.TID 0000.0001) %MON ke_vol                       =   4.6182928648713E+12
(PID.TID 0000.0001) // =======================================================
(PID.TID 0000.0001) // End MONITOR dynamic field statistics
(PID.TID 0000.0001) // =======================================================
(PID.TID 0000.0001) // =======================================================
(PID.TID 0000.0001) // Begin OBCS MONITOR field statistics
(PID.TID 0000.0001) // =======================================================
(PID.TID 0000.0001) %MON obc_N_vVel_max               =  -6.7019323781389E-08
(PID.TID 0000.0001) %MON obc_N_vVel_min               =  -6.7019323781390E-08
(PID.TID 0000.0001) %MON obc_N_vVel_mean              =  -6.7019323781390E-08
(PID.TID 0000.0001) %MON obc_N_vVel_sd                =  -7.3364064185554E-29
(PID.TID 0000.0001) %MON obc_N_vVel_Int               =  -4.4232753695718E+00
(PID.TID 0000.0001) // =======================================================
(PID.TID 0000.0001) // End OBCS MONITOR field statistics
(PID.TID 0000.0001) // =======================================================
 cg2d: Sum(rhs),rhsMax =   3.01133542971482E+00  4.53048903708968E+02
(PID.TID 0000.0001)      cg2d_init_res =   1.43852663128767E-06
(PID.TID 0000.0001)      cg2d_iters(min,last) =      -1      71
(PID.TID 0000.0001)      cg2d_last_res =   8.56804545627846E-12
(PID.TID 0000.0001) // =======================================================
(PID.TID 0000.0001) // Begin MONITOR dynamic field statistics
(PID.TID 0000.0001) // =======================================================
(PID.TID 0000.0001) %MON time_tsnumber                =                   634
(PID.TID 0000.0001) %MON time_secondsf                =   6.3400000000000E+04
(PID.TID 0000.0001) %MON dynstat_eta_max              =   5.7972311162568E+00
(PID.TID 0000.0001) %MON dynstat_eta_min              =  -1.4175341395874E+01
(PID.TID 0000.0001) %MON dynstat_eta_mean             =  -2.5264485465412E+00
(PID.TID 0000.0001) %MON dynstat_eta_sd               =   4.9417793706777E+00
(PID.TID 0000.0001) %MON dynstat_eta_del2             =   1.9058154417720E-01
(PID.TID 0000.0001) %MON dynstat_uvel_max             =   2.6425212324703E-03
(PID.TID 0000.0001) %MON dynstat_uvel_min             =  -7.7206943915469E-03
(PID.TID 0000.0001) %MON dynstat_uvel_mean            =  -1.3638069808923E-09
(PID.TID 0000.0001) %MON dynstat_uvel_sd              =   2.2057620712523E-04
(PID.TID 0000.0001) %MON dynstat_uvel_del2            =   3.8445095533369E-07
(PID.TID 0000.0001) %MON dynstat_vvel_max             =   7.0991668463640E-03
(PID.TID 0000.0001) %MON dynstat_vvel_min             =  -2.1809266429687E-03
(PID.TID 0000.0001) %MON dynstat_vvel_mean            =  -5.5525581364248E-08
(PID.TID 0000.0001) %MON dynstat_vvel_sd              =   1.3500675539761E-04
(PID.TID 0000.0001) %MON dynstat_vvel_del2            =   3.7169004170520E-07
(PID.TID 0000.0001) %MON dynstat_wvel_max             =   2.8175471404761E-04
(PID.TID 0000.0001) %MON dynstat_wvel_min             =  -2.8158045903775E-04
(PID.TID 0000.0001) %MON dynstat_wvel_mean            =   1.5730663492761E-10
(PID.TID 0000.0001) %MON dynstat_wvel_sd              =   1.1440571113026E-05
(PID.TID 0000.0001) %MON dynstat_wvel_del2            =   4.9349456111695E-08
(PID.TID 0000.0001) %MON dynstat_theta_max            =   1.2000000000000E+00
(PID.TID 0000.0001) %MON dynstat_theta_min            =  -1.0000000000000E+00
(PID.TID 0000.0001) %MON dynstat_theta_mean           =   5.6536451499436E-01
(PID.TID 0000.0001) %MON dynstat_theta_sd             =   8.4903430744524E-01
(PID.TID 0000.0001) %MON dynstat_theta_del2           =   1.0430921426924E-06
(PID.TID 0000.0001) %MON dynstat_salt_max             =   3.4700000000000E+01
(PID.TID 0000.0001) %MON dynstat_salt_min             =   3.4000000000000E+01
(PID.TID 0000.0001) %MON dynstat_salt_mean            =   3.4498059470701E+01
(PID.TID 0000.0001) %MON dynstat_salt_sd              =   2.7014770987481E-01
(PID.TID 0000.0001) %MON dynstat_salt_del2            =   4.0315052550484E-07
(PID.TID 0000.0001) %MON advcfl_uvel_max              =   7.7206943915469E-04
(PID.TID 0000.0001) %MON advcfl_vvel_max              =   7.0991668463640E-04
(PID.TID 0000.0001) %MON advcfl_wvel_max              =   1.4087735702381E-03
(PID.TID 0000.0001) %MON advcfl_W_hf_max              =   1.4087735702381E-03
(PID.TID 0000.0001) %MON pe_b_mean                    =  -6.8265512232527E-01
(PID.TID 0000.0001) %MON ke_max                       =   1.8403040590121E-05
(PID.TID 0000.0001) %MON ke_mean                      =   3.2982751230614E-08
(PID.TID 0000.0001) %MON ke_vol                       =   4.6182928802429E+12
(PID.TID 0000.0001) // =======================================================
(PID.TID 0000.0001) // End MONITOR dynamic field statistics
(PID.TID 0000.0001) // =======================================================
(PID.TID 0000.0001) // =======================================================
(PID.TID 0000.0001) // Begin OBCS MONITOR field statistics
(PID.TID 0000.0001) // =======================================================
(PID.TID 0000.0001) %MON obc_N_vVel_max               =  -6.7375796302135E-08
(PID.TID 0000.0001) %MON obc_N_vVel_min               =  -6.7375796302136E-08
(PID.TID 0000.0001) %MON obc_N_vVel_mean              =  -6.7375796302136E-08
(PID.TID 0000.0001) %MON obc_N_vVel_sd                =  -1.9800408721047E-28
(PID.TID 0000.0001) %MON obc_N_vVel_Int               =  -4.4468025559410E+00
(PID.TID 0000.0001) // =======================================================
(PID.TID 0000.0001) // End OBCS MONITOR field statistics
(PID.TID 0000.0001) // =======================================================
 cg2d: Sum(rhs),rhsMax =   3.01133240104420E+00  4.53048894157367E+02
(PID.TID 0000.0001)      cg2d_init_res =   1.45142522756452E-06
(PID.TID 0000.0001)      cg2d_iters(min,last) =      -1      71
(PID.TID 0000.0001)      cg2d_last_res =   8.59245267020329E-12
(PID.TID 0000.0001) // =======================================================
(PID.TID 0000.0001) // Begin MONITOR dynamic field statistics
(PID.TID 0000.0001) // =======================================================
(PID.TID 0000.0001) %MON time_tsnumber                =                   635
(PID.TID 0000.0001) %MON time_secondsf                =   6.3500000000000E+04
(PID.TID 0000.0001) %MON dynstat_eta_max              =   5.7972339448440E+00
(PID.TID 0000.0001) %MON dynstat_eta_min              =  -1.4175336545095E+01
(PID.TID 0000.0001) %MON dynstat_eta_mean             =  -2.5264459522839E+00
(PID.TID 0000.0001) %MON dynstat_eta_sd               =   4.9417785628982E+00
(PID.TID 0000.0001) %MON dynstat_eta_del2             =   1.9058154883489E-01
(PID.TID 0000.0001) %MON dynstat_uvel_max             =   2.6469880351740E-03
(PID.TID 0000.0001) %MON dynstat_uvel_min             =  -7.7438980950504E-03
(PID.TID 0000.0001) %MON dynstat_uvel_mean            =  -1.3593559207347E-09
(PID.TID 0000.0001) %MON dynstat_uvel_sd              =   2.2101789682775E-04
(PID.TID 0000.0001) %MON dynstat_uvel_del2            =   3.8521457485951E-07
(PID.TID 0000.0001) %MON dynstat_vvel_max             =   7.1149166313464E-03
(PID.TID 0000.0001) %MON dynstat_vvel_min             =  -2.1879145406647E-03
(PID.TID 0000.0001) %MON dynstat_vvel_mean            =  -5.5923211279190E-08
(PID.TID 0000.0001) %MON dynstat_vvel_sd              =   1.3526522590760E-04
(PID.TID 0000.0001) %MON dynstat_vvel_del2            =   3.7266973692594E-07
(PID.TID 0000.0001) %MON dynstat_wvel_max             =   2.8278351044071E-04
(PID.TID 0000.0001) %MON dynstat_wvel_min             =  -2.8236234508310E-04
(PID.TID 0000.0001) %MON dynstat_wvel_mean            =   1.5733856989586E-10
(PID.TID 0000.0001) %MON dynstat_wvel_sd              =   1.1580349855243E-05
(PID.TID 0000.0001) %MON dynstat_wvel_del2            =   5.0200534154797E-08
(PID.TID 0000.0001) %MON dynstat_theta_max            =   1.2000000000000E+00
(PID.TID 0000.0001) %MON dynstat_theta_min            =  -1.0000000000000E+00
(PID.TID 0000.0001) %MON dynstat_theta_mean           =   5.6536423188593E-01
(PID.TID 0000.0001) %MON dynstat_theta_sd             =   8.4903421611539E-01
(PID.TID 0000.0001) %MON dynstat_theta_del2           =   1.0441564463893E-06
(PID.TID 0000.0001) %MON dynstat_salt_max             =   3.4700000000000E+01
(PID.TID 0000.0001) %MON dynstat_salt_min             =   3.4000000000000E+01
(PID.TID 0000.0001) %MON dynstat_salt_mean            =   3.4498059358277E+01
(PID.TID 0000.0001) %MON dynstat_salt_sd              =   2.7014767819073E-01
(PID.TID 0000.0001) %MON dynstat_salt_del2            =   4.0371389950682E-07
(PID.TID 0000.0001) %MON advcfl_uvel_max              =   7.7438980950504E-04
(PID.TID 0000.0001) %MON advcfl_vvel_max              =   7.1149166313464E-04
(PID.TID 0000.0001) %MON advcfl_wvel_max              =   1.4139175522035E-03
(PID.TID 0000.0001) %MON advcfl_W_hf_max              =   1.4139175522035E-03
(PID.TID 0000.0001) %MON pe_b_mean                    =  -6.8265440217829E-01
(PID.TID 0000.0001) %MON ke_max                       =   1.8512227213512E-05
(PID.TID 0000.0001) %MON ke_mean                      =   3.3113369320134E-08
(PID.TID 0000.0001) %MON ke_vol                       =   4.6182928956335E+12
(PID.TID 0000.0001) // =======================================================
(PID.TID 0000.0001) // End MONITOR dynamic field statistics
(PID.TID 0000.0001) // =======================================================
(PID.TID 0000.0001) // =======================================================
(PID.TID 0000.0001) // Begin OBCS MONITOR field statistics
(PID.TID 0000.0001) // =======================================================
(PID.TID 0000.0001) %MON obc_N_vVel_max               =  -6.7746783003776E-08
(PID.TID 0000.0001) %MON obc_N_vVel_min               =  -6.7746783003776E-08
(PID.TID 0000.0001) %MON obc_N_vVel_mean              =  -6.7746783003776E-08
(PID.TID 0000.0001) %MON obc_N_vVel_sd                =   7.1054273576010E-15
(PID.TID 0000.0001) %MON obc_N_vVel_Int               =  -4.4712876782492E+00
(PID.TID 0000.0001) // =======================================================
(PID.TID 0000.0001) // End OBCS MONITOR field statistics
(PID.TID 0000.0001) // =======================================================
 cg2d: Sum(rhs),rhsMax =   3.01132936832381E+00  4.53048884633084E+02
(PID.TID 0000.0001)      cg2d_init_res =   1.46080806776626E-06
(PID.TID 0000.0001)      cg2d_iters(min,last) =      -1      71
(PID.TID 0000.0001)      cg2d_last_res =   8.61819860026319E-12
(PID.TID 0000.0001) // =======================================================
(PID.TID 0000.0001) // Begin MONITOR dynamic field statistics
(PID.TID 0000.0001) // =======================================================
(PID.TID 0000.0001) %MON time_tsnumber                =                   636
(PID.TID 0000.0001) %MON time_secondsf                =   6.3600000000000E+04
(PID.TID 0000.0001) %MON dynstat_eta_max              =   5.7972367731336E+00
(PID.TID 0000.0001) %MON dynstat_eta_min              =  -1.4175331701977E+01
(PID.TID 0000.0001) %MON dynstat_eta_mean             =  -2.5264433547814E+00
(PID.TID 0000.0001) %MON dynstat_eta_sd               =   4.9417777541937E+00
(PID.TID 0000.0001) %MON dynstat_eta_del2             =   1.9058155350181E-01
(PID.TID 0000.0001) %MON dynstat_uvel_max             =   2.6514625439376E-03
(PID.TID 0000.0001) %MON dynstat_uvel_min             =  -7.7671585712329E-03
(PID.TID 0000.0001) %MON dynstat_uvel_mean            =  -1.3557653940145E-09
(PID.TID 0000.0001) %MON dynstat_uvel_sd              =   2.2146138440135E-04
(PID.TID 0000.0001) %MON dynstat_uvel_del2            =   3.8598109704310E-07
(PID.TID 0000.0001) %MON dynstat_vvel_max             =   7.1306902606287E-03
(PID.TID 0000.0001) %MON dynstat_vvel_min             =  -2.1949124703253E-03
(PID.TID 0000.0001) %MON dynstat_vvel_mean            =  -5.6309975965728E-08
(PID.TID 0000.0001) %MON dynstat_vvel_sd              =   1.3550495873204E-04
(PID.TID 0000.0001) %MON dynstat_vvel_del2            =   3.7351060924839E-07
(PID.TID 0000.0001) %MON dynstat_wvel_max             =   2.8381452969430E-04
(PID.TID 0000.0001) %MON dynstat_wvel_min             =  -2.8314505127134E-04
(PID.TID 0000.0001) %MON dynstat_wvel_mean            =   1.5748454893515E-10
(PID.TID 0000.0001) %MON dynstat_wvel_sd              =   1.1660769393901E-05
(PID.TID 0000.0001) %MON dynstat_wvel_del2            =   5.0757975924512E-08
(PID.TID 0000.0001) %MON dynstat_theta_max            =   1.2000000000000E+00
(PID.TID 0000.0001) %MON dynstat_theta_min            =  -1.0000000000000E+00
(PID.TID 0000.0001) %MON dynstat_theta_mean           =   5.6536394858751E-01
(PID.TID 0000.0001) %MON dynstat_theta_sd             =   8.4903412451986E-01
(PID.TID 0000.0001) %MON dynstat_theta_del2           =   1.0453971047395E-06
(PID.TID 0000.0001) %MON dynstat_salt_max             =   3.4700000000000E+01
(PID.TID 0000.0001) %MON dynstat_salt_min             =   3.4000000000000E+01
(PID.TID 0000.0001) %MON dynstat_salt_mean            =   3.4498059245767E+01
(PID.TID 0000.0001) %MON dynstat_salt_sd              =   2.7014764640585E-01
(PID.TID 0000.0001) %MON dynstat_salt_del2            =   4.0432400965736E-07
(PID.TID 0000.0001) %MON advcfl_uvel_max              =   7.7671585712329E-04
(PID.TID 0000.0001) %MON advcfl_vvel_max              =   7.1306902606287E-04
(PID.TID 0000.0001) %MON advcfl_wvel_max              =   1.4190726484715E-03
(PID.TID 0000.0001) %MON advcfl_W_hf_max              =   1.4190726484715E-03
(PID.TID 0000.0001) %MON pe_b_mean                    =  -6.8265368103079E-01
(PID.TID 0000.0001) %MON ke_max                       =   1.8622018710780E-05
(PID.TID 0000.0001) %MON ke_mean                      =   3.3242097169304E-08
(PID.TID 0000.0001) %MON ke_vol                       =   4.6182929110434E+12
(PID.TID 0000.0001) // =======================================================
(PID.TID 0000.0001) // End MONITOR dynamic field statistics
(PID.TID 0000.0001) // =======================================================
(PID.TID 0000.0001) // =======================================================
(PID.TID 0000.0001) // Begin OBCS MONITOR field statistics
(PID.TID 0000.0001) // =======================================================
(PID.TID 0000.0001) %MON obc_N_vVel_max               =  -6.8117117141508E-08
(PID.TID 0000.0001) %MON obc_N_vVel_min               =  -6.8117117141510E-08
(PID.TID 0000.0001) %MON obc_N_vVel_mean              =  -6.8117117141510E-08
(PID.TID 0000.0001) %MON obc_N_vVel_sd                =  -2.5006890695506E-28
(PID.TID 0000.0001) %MON obc_N_vVel_Int               =  -4.4957297313396E+00
(PID.TID 0000.0001) // =======================================================
(PID.TID 0000.0001) // End OBCS MONITOR field statistics
(PID.TID 0000.0001) // =======================================================
 cg2d: Sum(rhs),rhsMax =   3.01132633157010E+00  4.53048875135090E+02
(PID.TID 0000.0001)      cg2d_init_res =   1.46617301516879E-06
(PID.TID 0000.0001)      cg2d_iters(min,last) =      -1      71
(PID.TID 0000.0001)      cg2d_last_res =   8.64479981360156E-12
(PID.TID 0000.0001) // =======================================================
(PID.TID 0000.0001) // Begin MONITOR dynamic field statistics
(PID.TID 0000.0001) // =======================================================
(PID.TID 0000.0001) %MON time_tsnumber                =                   637
(PID.TID 0000.0001) %MON time_secondsf                =   6.3700000000000E+04
(PID.TID 0000.0001) %MON dynstat_eta_max              =   5.7972396009694E+00
(PID.TID 0000.0001) %MON dynstat_eta_min              =  -1.4175326866518E+01
(PID.TID 0000.0001) %MON dynstat_eta_mean             =  -2.5264407540417E+00
(PID.TID 0000.0001) %MON dynstat_eta_sd               =   4.9417769445818E+00
(PID.TID 0000.0001) %MON dynstat_eta_del2             =   1.9058155817816E-01
(PID.TID 0000.0001) %MON dynstat_uvel_max             =   2.6559447224681E-03
(PID.TID 0000.0001) %MON dynstat_uvel_min             =  -7.7904759397880E-03
(PID.TID 0000.0001) %MON dynstat_uvel_mean            =  -1.3530151672754E-09
(PID.TID 0000.0001) %MON dynstat_uvel_sd              =   2.2190667724869E-04
(PID.TID 0000.0001) %MON dynstat_uvel_del2            =   3.8675048464946E-07
(PID.TID 0000.0001) %MON dynstat_vvel_max             =   7.1464877960985E-03
(PID.TID 0000.0001) %MON dynstat_vvel_min             =  -2.2019204462955E-03
(PID.TID 0000.0001) %MON dynstat_vvel_mean            =  -5.6670081696204E-08
(PID.TID 0000.0001) %MON dynstat_vvel_sd              =   1.3572410580716E-04
(PID.TID 0000.0001) %MON dynstat_vvel_del2            =   3.7420194764535E-07
(PID.TID 0000.0001) %MON dynstat_wvel_max             =   2.8484777753528E-04
(PID.TID 0000.0001) %MON dynstat_wvel_min             =  -2.8392858059648E-04
(PID.TID 0000.0001) %MON dynstat_wvel_mean            =   1.5774067281000E-10
(PID.TID 0000.0001) %MON dynstat_wvel_sd              =   1.1678079865755E-05
(PID.TID 0000.0001) %MON dynstat_wvel_del2            =   5.0991191212604E-08
(PID.TID 0000.0001) %MON dynstat_theta_max            =   1.2000000000000E+00
(PID.TID 0000.0001) %MON dynstat_theta_min            =  -1.0000000000000E+00
(PID.TID 0000.0001) %MON dynstat_theta_mean           =   5.6536366510498E-01
(PID.TID 0000.0001) %MON dynstat_theta_sd             =   8.4903403266207E-01
(PID.TID 0000.0001) %MON dynstat_theta_del2           =   1.0468336995526E-06
(PID.TID 0000.0001) %MON dynstat_salt_max             =   3.4700000000000E+01
(PID.TID 0000.0001) %MON dynstat_salt_min             =   3.4000000000000E+01
(PID.TID 0000.0001) %MON dynstat_salt_mean            =   3.4498059133172E+01
(PID.TID 0000.0001) %MON dynstat_salt_sd              =   2.7014761452131E-01
(PID.TID 0000.0001) %MON dynstat_salt_del2            =   4.0498593314191E-07
(PID.TID 0000.0001) %MON advcfl_uvel_max              =   7.7904759397880E-04
(PID.TID 0000.0001) %MON advcfl_vvel_max              =   7.1464877960985E-04
(PID.TID 0000.0001) %MON advcfl_wvel_max              =   1.4242388876764E-03
(PID.TID 0000.0001) %MON advcfl_W_hf_max              =   1.4242388876764E-03
(PID.TID 0000.0001) %MON pe_b_mean                    =  -6.8265295888672E-01
(PID.TID 0000.0001) %MON ke_max                       =   1.8732418103098E-05
(PID.TID 0000.0001) %MON ke_mean                      =   3.3368674440217E-08
(PID.TID 0000.0001) %MON ke_vol                       =   4.6182929264726E+12
(PID.TID 0000.0001) // =======================================================
(PID.TID 0000.0001) // End MONITOR dynamic field statistics
(PID.TID 0000.0001) // =======================================================
(PID.TID 0000.0001) // =======================================================
(PID.TID 0000.0001) // Begin OBCS MONITOR field statistics
(PID.TID 0000.0001) // =======================================================
(PID.TID 0000.0001) %MON obc_N_vVel_max               =  -6.8471959035795E-08
(PID.TID 0000.0001) %MON obc_N_vVel_min               =  -6.8471959035795E-08
(PID.TID 0000.0001) %MON obc_N_vVel_mean              =  -6.8471959035795E-08
(PID.TID 0000.0001) %MON obc_N_vVel_sd                =  -3.2343297114061E-29
(PID.TID 0000.0001) %MON obc_N_vVel_Int               =  -4.5191492963625E+00
(PID.TID 0000.0001) // =======================================================
(PID.TID 0000.0001) // End OBCS MONITOR field statistics
(PID.TID 0000.0001) // =======================================================
 cg2d: Sum(rhs),rhsMax =   3.01132329082141E+00  4.53048865661813E+02
(PID.TID 0000.0001)      cg2d_init_res =   1.46726391846561E-06
(PID.TID 0000.0001)      cg2d_iters(min,last) =      -1      71
(PID.TID 0000.0001)      cg2d_last_res =   8.67175188290388E-12
(PID.TID 0000.0001) // =======================================================
(PID.TID 0000.0001) // Begin MONITOR dynamic field statistics
(PID.TID 0000.0001) // =======================================================
(PID.TID 0000.0001) %MON time_tsnumber                =                   638
(PID.TID 0000.0001) %MON time_secondsf                =   6.3800000000000E+04
(PID.TID 0000.0001) %MON dynstat_eta_max              =   5.7972424281473E+00
(PID.TID 0000.0001) %MON dynstat_eta_min              =  -1.4175322038752E+01
(PID.TID 0000.0001) %MON dynstat_eta_mean             =  -2.5264381500882E+00
(PID.TID 0000.0001) %MON dynstat_eta_sd               =   4.9417761340831E+00
(PID.TID 0000.0001) %MON dynstat_eta_del2             =   1.9058156286409E-01
(PID.TID 0000.0001) %MON dynstat_uvel_max             =   2.6604345341763E-03
(PID.TID 0000.0001) %MON dynstat_uvel_min             =  -7.8138503201286E-03
(PID.TID 0000.0001) %MON dynstat_uvel_mean            =  -1.3510446586466E-09
(PID.TID 0000.0001) %MON dynstat_uvel_sd              =   2.2235378008526E-04
(PID.TID 0000.0001) %MON dynstat_uvel_del2            =   3.8752267560781E-07
(PID.TID 0000.0001) %MON dynstat_vvel_max             =   7.1623092988122E-03
(PID.TID 0000.0001) %MON dynstat_vvel_min             =  -2.2089384833608E-03
(PID.TID 0000.0001) %MON dynstat_vvel_mean            =  -5.6988965741124E-08
(PID.TID 0000.0001) %MON dynstat_vvel_sd              =   1.3592237789746E-04
(PID.TID 0000.0001) %MON dynstat_vvel_del2            =   3.7474347862415E-07
(PID.TID 0000.0001) %MON dynstat_wvel_max             =   2.8588325969413E-04
(PID.TID 0000.0001) %MON dynstat_wvel_min             =  -2.8471293613562E-04
(PID.TID 0000.0001) %MON dynstat_wvel_mean            =   1.5809988222277E-10
(PID.TID 0000.0001) %MON dynstat_wvel_sd              =   1.1631993550946E-05
(PID.TID 0000.0001) %MON dynstat_wvel_del2            =   5.0886846084477E-08
(PID.TID 0000.0001) %MON dynstat_theta_max            =   1.2000000000000E+00
(PID.TID 0000.0001) %MON dynstat_theta_min            =  -1.0000000000000E+00
(PID.TID 0000.0001) %MON dynstat_theta_mean           =   5.6536338144183E-01
(PID.TID 0000.0001) %MON dynstat_theta_sd             =   8.4903394054900E-01
(PID.TID 0000.0001) %MON dynstat_theta_del2           =   1.0484719332761E-06
(PID.TID 0000.0001) %MON dynstat_salt_max             =   3.4700000000000E+01
(PID.TID 0000.0001) %MON dynstat_salt_min             =   3.4000000000000E+01
(PID.TID 0000.0001) %MON dynstat_salt_mean            =   3.4498059020494E+01
(PID.TID 0000.0001) %MON dynstat_salt_sd              =   2.7014758253916E-01
(PID.TID 0000.0001) %MON dynstat_salt_del2            =   4.0570112899095E-07
(PID.TID 0000.0001) %MON advcfl_uvel_max              =   7.8138503201286E-04
(PID.TID 0000.0001) %MON advcfl_vvel_max              =   7.1623092988122E-04
(PID.TID 0000.0001) %MON advcfl_wvel_max              =   1.4294162984707E-03
(PID.TID 0000.0001) %MON advcfl_W_hf_max              =   1.4294162984707E-03
(PID.TID 0000.0001) %MON pe_b_mean                    =  -6.8265223575291E-01
(PID.TID 0000.0001) %MON ke_max                       =   1.8843428421869E-05
(PID.TID 0000.0001) %MON ke_mean                      =   3.3493051681295E-08
(PID.TID 0000.0001) %MON ke_vol                       =   4.6182929419210E+12
(PID.TID 0000.0001) // =======================================================
(PID.TID 0000.0001) // End MONITOR dynamic field statistics
(PID.TID 0000.0001) // =======================================================
(PID.TID 0000.0001) // =======================================================
(PID.TID 0000.0001) // Begin OBCS MONITOR field statistics
(PID.TID 0000.0001) // =======================================================
(PID.TID 0000.0001) %MON obc_N_vVel_max               =  -6.8797327666373E-08
(PID.TID 0000.0001) %MON obc_N_vVel_min               =  -6.8797327666374E-08
(PID.TID 0000.0001) %MON obc_N_vVel_mean              =  -6.8797327666373E-08
(PID.TID 0000.0001) %MON obc_N_vVel_sd                =   1.4210854715202E-14
(PID.TID 0000.0001) %MON obc_N_vVel_Int               =  -4.5406236259806E+00
(PID.TID 0000.0001) // =======================================================
(PID.TID 0000.0001) // End OBCS MONITOR field statistics
(PID.TID 0000.0001) // =======================================================
 cg2d: Sum(rhs),rhsMax =   3.01132024613546E+00  4.53048856211181E+02
(PID.TID 0000.0001)      cg2d_init_res =   1.46408248414482E-06
(PID.TID 0000.0001)      cg2d_iters(min,last) =      -1      71
(PID.TID 0000.0001)      cg2d_last_res =   8.69846535431576E-12
(PID.TID 0000.0001) // =======================================================
(PID.TID 0000.0001) // Begin MONITOR dynamic field statistics
(PID.TID 0000.0001) // =======================================================
(PID.TID 0000.0001) %MON time_tsnumber                =                   639
(PID.TID 0000.0001) %MON time_secondsf                =   6.3900000000000E+04
(PID.TID 0000.0001) %MON dynstat_eta_max              =   5.7972452544579E+00
(PID.TID 0000.0001) %MON dynstat_eta_min              =  -1.4175317218738E+01
(PID.TID 0000.0001) %MON dynstat_eta_mean             =  -2.5264355429578E+00
(PID.TID 0000.0001) %MON dynstat_eta_sd               =   4.9417753227204E+00
(PID.TID 0000.0001) %MON dynstat_eta_del2             =   1.9058156755968E-01
(PID.TID 0000.0001) %MON dynstat_uvel_max             =   2.6649319420251E-03
(PID.TID 0000.0001) %MON dynstat_uvel_min             =  -7.8372818312138E-03
(PID.TID 0000.0001) %MON dynstat_uvel_mean            =  -1.3497587099316E-09
(PID.TID 0000.0001) %MON dynstat_uvel_sd              =   2.2280269515449E-04
(PID.TID 0000.0001) %MON dynstat_uvel_del2            =   3.8829758580473E-07
(PID.TID 0000.0001) %MON dynstat_vvel_max             =   7.1781548291334E-03
(PID.TID 0000.0001) %MON dynstat_vvel_min             =  -2.2159665968635E-03
(PID.TID 0000.0001) %MON dynstat_vvel_mean            =  -5.7253770812754E-08
(PID.TID 0000.0001) %MON dynstat_vvel_sd              =   1.3610103051905E-04
(PID.TID 0000.0001) %MON dynstat_vvel_del2            =   3.7514530771418E-07
(PID.TID 0000.0001) %MON dynstat_wvel_max             =   2.8692098193727E-04
(PID.TID 0000.0001) %MON dynstat_wvel_min             =  -2.8549812098825E-04
(PID.TID 0000.0001) %MON dynstat_wvel_mean            =   1.5855148127928E-10
(PID.TID 0000.0001) %MON dynstat_wvel_sd              =   1.1525634331021E-05
(PID.TID 0000.0001) %MON dynstat_wvel_del2            =   5.0448856282373E-08
(PID.TID 0000.0001) %MON dynstat_theta_max            =   1.2000000000000E+00
(PID.TID 0000.0001) %MON dynstat_theta_min            =  -1.0000000000000E+00
(PID.TID 0000.0001) %MON dynstat_theta_mean           =   5.6536309759906E-01
(PID.TID 0000.0001) %MON dynstat_theta_sd             =   8.4903384818883E-01
(PID.TID 0000.0001) %MON dynstat_theta_del2           =   1.0503035282750E-06
(PID.TID 0000.0001) %MON dynstat_salt_max             =   3.4700000000000E+01
(PID.TID 0000.0001) %MON dynstat_salt_min             =   3.4000000000000E+01
(PID.TID 0000.0001) %MON dynstat_salt_mean            =   3.4498058907732E+01
(PID.TID 0000.0001) %MON dynstat_salt_sd              =   2.7014755046215E-01
(PID.TID 0000.0001) %MON dynstat_salt_del2            =   4.0646740304831E-07
(PID.TID 0000.0001) %MON advcfl_uvel_max              =   7.8372818312138E-04
(PID.TID 0000.0001) %MON advcfl_vvel_max              =   7.1781548291334E-04
(PID.TID 0000.0001) %MON advcfl_wvel_max              =   1.4346049096864E-03
(PID.TID 0000.0001) %MON advcfl_W_hf_max              =   1.4346049096864E-03
(PID.TID 0000.0001) %MON pe_b_mean                    =  -6.8265151163860E-01
(PID.TID 0000.0001) %MON ke_max                       =   1.8955052707719E-05
(PID.TID 0000.0001) %MON ke_mean                      =   3.3615390218600E-08
(PID.TID 0000.0001) %MON ke_vol                       =   4.6182929573885E+12
(PID.TID 0000.0001) // =======================================================
(PID.TID 0000.0001) // End MONITOR dynamic field statistics
(PID.TID 0000.0001) // =======================================================
(PID.TID 0000.0001) // =======================================================
(PID.TID 0000.0001) // Begin OBCS MONITOR field statistics
(PID.TID 0000.0001) // =======================================================
(PID.TID 0000.0001) %MON obc_N_vVel_max               =  -6.9080520486901E-08
(PID.TID 0000.0001) %MON obc_N_vVel_min               =  -6.9080520486902E-08
(PID.TID 0000.0001) %MON obc_N_vVel_mean              =  -6.9080520486901E-08
(PID.TID 0000.0001) %MON obc_N_vVel_sd                =   1.1715878008432E-14
(PID.TID 0000.0001) %MON obc_N_vVel_Int               =  -4.5593143521355E+00
(PID.TID 0000.0001) // =======================================================
(PID.TID 0000.0001) // End OBCS MONITOR field statistics
(PID.TID 0000.0001) // =======================================================
 cg2d: Sum(rhs),rhsMax =   3.01131719758793E+00  4.53048846780639E+02
(PID.TID 0000.0001)      cg2d_init_res =   1.45690296367152E-06
(PID.TID 0000.0001)      cg2d_iters(min,last) =      -1      71
(PID.TID 0000.0001)      cg2d_last_res =   8.72484738376504E-12
(PID.TID 0000.0001) // =======================================================
(PID.TID 0000.0001) // Begin MONITOR dynamic field statistics
(PID.TID 0000.0001) // =======================================================
(PID.TID 0000.0001) %MON time_tsnumber                =                   640
(PID.TID 0000.0001) %MON time_secondsf                =   6.4000000000000E+04
(PID.TID 0000.0001) %MON dynstat_eta_max              =   5.7972480796785E+00
(PID.TID 0000.0001) %MON dynstat_eta_min              =  -1.4175312406560E+01
(PID.TID 0000.0001) %MON dynstat_eta_mean             =  -2.5264329326998E+00
(PID.TID 0000.0001) %MON dynstat_eta_sd               =   4.9417745105194E+00
(PID.TID 0000.0001) %MON dynstat_eta_del2             =   1.9058157226504E-01
(PID.TID 0000.0001) %MON dynstat_uvel_max             =   2.6694369084392E-03
(PID.TID 0000.0001) %MON dynstat_uvel_min             =  -7.8607705914528E-03
(PID.TID 0000.0001) %MON dynstat_uvel_mean            =  -1.3490465646846E-09
(PID.TID 0000.0001) %MON dynstat_uvel_sd              =   2.2325342261880E-04
(PID.TID 0000.0001) %MON dynstat_uvel_del2            =   3.8907511339225E-07
(PID.TID 0000.0001) %MON dynstat_vvel_max             =   7.1940244463287E-03
(PID.TID 0000.0001) %MON dynstat_vvel_min             =  -2.2230048026470E-03
(PID.TID 0000.0001) %MON dynstat_vvel_mean            =  -5.7453741026199E-08
(PID.TID 0000.0001) %MON dynstat_vvel_sd              =   1.3626274588348E-04
(PID.TID 0000.0001) %MON dynstat_vvel_del2            =   3.7542718422449E-07
(PID.TID 0000.0001) %MON dynstat_wvel_max             =   2.8796095003496E-04
(PID.TID 0000.0001) %MON dynstat_wvel_min             =  -2.8628413831269E-04
(PID.TID 0000.0001) %MON dynstat_wvel_mean            =   1.5908298476055E-10
(PID.TID 0000.0001) %MON dynstat_wvel_sd              =   1.1365448551705E-05
(PID.TID 0000.0001) %MON dynstat_wvel_del2            =   4.9698380568469E-08
(PID.TID 0000.0001) %MON dynstat_theta_max            =   1.2000000000000E+00
(PID.TID 0000.0001) %MON dynstat_theta_min            =  -1.0000000000000E+00
(PID.TID 0000.0001) %MON dynstat_theta_mean           =   5.6536281357524E-01
(PID.TID 0000.0001) %MON dynstat_theta_sd             =   8.4903375558539E-01
(PID.TID 0000.0001) %MON dynstat_theta_del2           =   1.0523071223655E-06
(PID.TID 0000.0001) %MON dynstat_salt_max             =   3.4700000000000E+01
(PID.TID 0000.0001) %MON dynstat_salt_min             =   3.4000000000000E+01
(PID.TID 0000.0001) %MON dynstat_salt_mean            =   3.4498058794887E+01
(PID.TID 0000.0001) %MON dynstat_salt_sd              =   2.7014751829118E-01
(PID.TID 0000.0001) %MON dynstat_salt_del2            =   4.0727916908019E-07
(PID.TID 0000.0001) %MON advcfl_uvel_max              =   7.8607705914528E-04
(PID.TID 0000.0001) %MON advcfl_vvel_max              =   7.1940244463287E-04
(PID.TID 0000.0001) %MON advcfl_wvel_max              =   1.4398047501748E-03
(PID.TID 0000.0001) %MON advcfl_W_hf_max              =   1.4398047501748E-03
(PID.TID 0000.0001) %MON pe_b_mean                    =  -6.8265078655532E-01
(PID.TID 0000.0001) %MON ke_max                       =   1.9067294010207E-05
(PID.TID 0000.0001) %MON ke_mean                      =   3.3736047436616E-08
(PID.TID 0000.0001) %MON ke_vol                       =   4.6182929728748E+12
(PID.TID 0000.0001) // =======================================================
(PID.TID 0000.0001) // End MONITOR dynamic field statistics
(PID.TID 0000.0001) // =======================================================
(PID.TID 0000.0001) // =======================================================
(PID.TID 0000.0001) // Begin OBCS MONITOR field statistics
(PID.TID 0000.0001) // =======================================================
(PID.TID 0000.0001) %MON obc_N_vVel_max               =  -6.9310581930952E-08
(PID.TID 0000.0001) %MON obc_N_vVel_min               =  -6.9310581930953E-08
(PID.TID 0000.0001) %MON obc_N_vVel_mean              =  -6.9310581930952E-08
(PID.TID 0000.0001) %MON obc_N_vVel_sd                =   1.6781637082356E-14
(PID.TID 0000.0001) %MON obc_N_vVel_Int               =  -4.5744984074428E+00
(PID.TID 0000.0001) // =======================================================
(PID.TID 0000.0001) // End OBCS MONITOR field statistics
(PID.TID 0000.0001) // =======================================================
 cg2d: Sum(rhs),rhsMax =   3.01131414526887E+00  4.53048837367205E+02
(PID.TID 0000.0001)      cg2d_init_res =   1.44625055120146E-06
(PID.TID 0000.0001)      cg2d_iters(min,last) =      -1      71
(PID.TID 0000.0001)      cg2d_last_res =   8.75116222808047E-12
(PID.TID 0000.0001) // =======================================================
(PID.TID 0000.0001) // Begin MONITOR dynamic field statistics
(PID.TID 0000.0001) // =======================================================
(PID.TID 0000.0001) %MON time_tsnumber                =                   641
(PID.TID 0000.0001) %MON time_secondsf                =   6.4100000000000E+04
(PID.TID 0000.0001) %MON dynstat_eta_max              =   5.7972509035722E+00
(PID.TID 0000.0001) %MON dynstat_eta_min              =  -1.4175307602311E+01
(PID.TID 0000.0001) %MON dynstat_eta_mean             =  -2.5264303193731E+00
(PID.TID 0000.0001) %MON dynstat_eta_sd               =   4.9417736975068E+00
(PID.TID 0000.0001) %MON dynstat_eta_del2             =   1.9058157698027E-01
(PID.TID 0000.0001) %MON dynstat_uvel_max             =   2.6739493955574E-03
(PID.TID 0000.0001) %MON dynstat_uvel_min             =  -7.8843167188509E-03
(PID.TID 0000.0001) %MON dynstat_uvel_mean            =  -1.3487863014150E-09
(PID.TID 0000.0001) %MON dynstat_uvel_sd              =   2.2370596109022E-04
(PID.TID 0000.0001) %MON dynstat_uvel_del2            =   3.8985514441388E-07
(PID.TID 0000.0001) %MON dynstat_vvel_max             =   7.2099182087053E-03
(PID.TID 0000.0001) %MON dynstat_vvel_min             =  -2.2300531170760E-03
(PID.TID 0000.0001) %MON dynstat_vvel_mean            =  -5.7580556812970E-08
(PID.TID 0000.0001) %MON dynstat_vvel_sd              =   1.3641141986549E-04
(PID.TID 0000.0001) %MON dynstat_vvel_del2            =   3.7561712820490E-07
(PID.TID 0000.0001) %MON dynstat_wvel_max             =   2.8900316978643E-04
(PID.TID 0000.0001) %MON dynstat_wvel_min             =  -2.8707099133137E-04
(PID.TID 0000.0001) %MON dynstat_wvel_mean            =   1.5967765168106E-10
(PID.TID 0000.0001) %MON dynstat_wvel_sd              =   1.1161058032355E-05
(PID.TID 0000.0001) %MON dynstat_wvel_del2            =   4.8673784900366E-08
(PID.TID 0000.0001) %MON dynstat_theta_max            =   1.2000000000000E+00
(PID.TID 0000.0001) %MON dynstat_theta_min            =  -1.0000000000000E+00
(PID.TID 0000.0001) %MON dynstat_theta_mean           =   5.6536252936645E-01
(PID.TID 0000.0001) %MON dynstat_theta_sd             =   8.4903366273089E-01
(PID.TID 0000.0001) %MON dynstat_theta_del2           =   1.0544501106566E-06
(PID.TID 0000.0001) %MON dynstat_salt_max             =   3.4700000000000E+01
(PID.TID 0000.0001) %MON dynstat_salt_min             =   3.4000000000000E+01
(PID.TID 0000.0001) %MON dynstat_salt_mean            =   3.4498058681957E+01
(PID.TID 0000.0001) %MON dynstat_salt_sd              =   2.7014748602396E-01
(PID.TID 0000.0001) %MON dynstat_salt_del2            =   4.0812787759305E-07
(PID.TID 0000.0001) %MON advcfl_uvel_max              =   7.8843167188509E-04
(PID.TID 0000.0001) %MON advcfl_vvel_max              =   7.2099182087053E-04
(PID.TID 0000.0001) %MON advcfl_wvel_max              =   1.4450158489322E-03
(PID.TID 0000.0001) %MON advcfl_W_hf_max              =   1.4450158489322E-03
(PID.TID 0000.0001) %MON pe_b_mean                    =  -6.8265006051601E-01
(PID.TID 0000.0001) %MON ke_max                       =   1.9180155388436E-05
(PID.TID 0000.0001) %MON ke_mean                      =   3.3855548634550E-08
(PID.TID 0000.0001) %MON ke_vol                       =   4.6182929883798E+12
(PID.TID 0000.0001) // =======================================================
(PID.TID 0000.0001) // End MONITOR dynamic field statistics
(PID.TID 0000.0001) // =======================================================
(PID.TID 0000.0001) // =======================================================
(PID.TID 0000.0001) // Begin OBCS MONITOR field statistics
(PID.TID 0000.0001) // =======================================================
(PID.TID 0000.0001) %MON obc_N_vVel_max               =  -6.9478448136238E-08
(PID.TID 0000.0001) %MON obc_N_vVel_min               =  -6.9478448136238E-08
(PID.TID 0000.0001) %MON obc_N_vVel_mean              =  -6.9478448136238E-08
(PID.TID 0000.0001) %MON obc_N_vVel_sd                =   1.0805156823143E-14
(PID.TID 0000.0001) %MON obc_N_vVel_Int               =  -4.5855775769917E+00
(PID.TID 0000.0001) // =======================================================
(PID.TID 0000.0001) // End OBCS MONITOR field statistics
(PID.TID 0000.0001) // =======================================================
 cg2d: Sum(rhs),rhsMax =   3.01131108928015E+00  4.53048827967497E+02
(PID.TID 0000.0001)      cg2d_init_res =   1.43287628174355E-06
(PID.TID 0000.0001)      cg2d_iters(min,last) =      -1      71
(PID.TID 0000.0001)      cg2d_last_res =   8.77777143288601E-12
(PID.TID 0000.0001) // =======================================================
(PID.TID 0000.0001) // Begin MONITOR dynamic field statistics
(PID.TID 0000.0001) // =======================================================
(PID.TID 0000.0001) %MON time_tsnumber                =                   642
(PID.TID 0000.0001) %MON time_secondsf                =   6.4200000000000E+04
(PID.TID 0000.0001) %MON dynstat_eta_max              =   5.7972537258916E+00
(PID.TID 0000.0001) %MON dynstat_eta_min              =  -1.4175302806098E+01
(PID.TID 0000.0001) %MON dynstat_eta_mean             =  -2.5264277030443E+00
(PID.TID 0000.0001) %MON dynstat_eta_sd               =   4.9417728837086E+00
(PID.TID 0000.0001) %MON dynstat_eta_del2             =   1.9058158170540E-01
(PID.TID 0000.0001) %MON dynstat_uvel_max             =   2.6784693649127E-03
(PID.TID 0000.0001) %MON dynstat_uvel_min             =  -7.9079203309051E-03
(PID.TID 0000.0001) %MON dynstat_uvel_mean            =  -1.3488531338899E-09
(PID.TID 0000.0001) %MON dynstat_uvel_sd              =   2.2416030830422E-04
(PID.TID 0000.0001) %MON dynstat_uvel_del2            =   3.9063755884098E-07
(PID.TID 0000.0001) %MON dynstat_vvel_max             =   7.2258361734856E-03
(PID.TID 0000.0001) %MON dynstat_vvel_min             =  -2.2371115570117E-03
(PID.TID 0000.0001) %MON dynstat_vvel_mean            =  -5.7628618823832E-08
(PID.TID 0000.0001) %MON dynstat_vvel_sd              =   1.3655186894188E-04
(PID.TID 0000.0001) %MON dynstat_vvel_del2            =   3.7574949469827E-07
(PID.TID 0000.0001) %MON dynstat_wvel_max             =   2.9004764700356E-04
(PID.TID 0000.0001) %MON dynstat_wvel_min             =  -2.8785868331200E-04
(PID.TID 0000.0001) %MON dynstat_wvel_mean            =   1.6031803199891E-10
(PID.TID 0000.0001) %MON dynstat_wvel_sd              =   1.0925015681839E-05
(PID.TID 0000.0001) %MON dynstat_wvel_del2            =   4.7430449341522E-08
(PID.TID 0000.0001) %MON dynstat_theta_max            =   1.2000000000000E+00
(PID.TID 0000.0001) %MON dynstat_theta_min            =  -1.0000000000000E+00
(PID.TID 0000.0001) %MON dynstat_theta_mean           =   5.6536224496637E-01
(PID.TID 0000.0001) %MON dynstat_theta_sd             =   8.4903356962309E-01
(PID.TID 0000.0001) %MON dynstat_theta_del2           =   1.0566913792174E-06
(PID.TID 0000.0001) %MON dynstat_salt_max             =   3.4700000000000E+01
(PID.TID 0000.0001) %MON dynstat_salt_min             =   3.4000000000000E+01
(PID.TID 0000.0001) %MON dynstat_salt_mean            =   3.4498058568939E+01
(PID.TID 0000.0001) %MON dynstat_salt_sd              =   2.7014745365956E-01
(PID.TID 0000.0001) %MON dynstat_salt_del2            =   4.0900276545463E-07
(PID.TID 0000.0001) %MON advcfl_uvel_max              =   7.9079203309051E-04
(PID.TID 0000.0001) %MON advcfl_vvel_max              =   7.2258361734856E-04
(PID.TID 0000.0001) %MON advcfl_wvel_max              =   1.4502382350178E-03
(PID.TID 0000.0001) %MON advcfl_W_hf_max              =   1.4502382350178E-03
(PID.TID 0000.0001) %MON pe_b_mean                    =  -6.8264933353472E-01
(PID.TID 0000.0001) %MON ke_max                       =   1.9293639910363E-05
(PID.TID 0000.0001) %MON ke_mean                      =   3.3974547575212E-08
(PID.TID 0000.0001) %MON ke_vol                       =   4.6182930039029E+12
(PID.TID 0000.0001) // =======================================================
(PID.TID 0000.0001) // End MONITOR dynamic field statistics
(PID.TID 0000.0001) // =======================================================
(PID.TID 0000.0001) // =======================================================
(PID.TID 0000.0001) // Begin OBCS MONITOR field statistics
(PID.TID 0000.0001) // =======================================================
(PID.TID 0000.0001) %MON obc_N_vVel_max               =  -6.9577490569029E-08
(PID.TID 0000.0001) %MON obc_N_vVel_min               =  -6.9577490569030E-08
(PID.TID 0000.0001) %MON obc_N_vVel_mean              =  -6.9577490569030E-08
(PID.TID 0000.0001) %MON obc_N_vVel_sd                =   5.8241753857953E-15
(PID.TID 0000.0001) %MON obc_N_vVel_Int               =  -4.5921143775560E+00
(PID.TID 0000.0001) // =======================================================
(PID.TID 0000.0001) // End OBCS MONITOR field statistics
(PID.TID 0000.0001) // =======================================================
 cg2d: Sum(rhs),rhsMax =   3.01130802973008E+00  4.53048818577792E+02
(PID.TID 0000.0001)      cg2d_init_res =   1.41773668390756E-06
(PID.TID 0000.0001)      cg2d_iters(min,last) =      -1      71
(PID.TID 0000.0001)      cg2d_last_res =   8.80501076968696E-12
(PID.TID 0000.0001) // =======================================================
(PID.TID 0000.0001) // Begin MONITOR dynamic field statistics
(PID.TID 0000.0001) // =======================================================
(PID.TID 0000.0001) %MON time_tsnumber                =                   643
(PID.TID 0000.0001) %MON time_secondsf                =   6.4300000000000E+04
(PID.TID 0000.0001) %MON dynstat_eta_max              =   5.7972565464024E+00
(PID.TID 0000.0001) %MON dynstat_eta_min              =  -1.4175298018027E+01
(PID.TID 0000.0001) %MON dynstat_eta_mean             =  -2.5264250837834E+00
(PID.TID 0000.0001) %MON dynstat_eta_sd               =   4.9417720691491E+00
(PID.TID 0000.0001) %MON dynstat_eta_del2             =   1.9058158644044E-01
(PID.TID 0000.0001) %MON dynstat_uvel_max             =   2.6829967776933E-03
(PID.TID 0000.0001) %MON dynstat_uvel_min             =  -7.9315815446659E-03
(PID.TID 0000.0001) %MON dynstat_uvel_mean            =  -1.3491057372434E-09
(PID.TID 0000.0001) %MON dynstat_uvel_sd              =   2.2461646184426E-04
(PID.TID 0000.0001) %MON dynstat_uvel_del2            =   3.9142223746839E-07
(PID.TID 0000.0001) %MON dynstat_vvel_max             =   7.2417783967675E-03
(PID.TID 0000.0001) %MON dynstat_vvel_min             =  -2.2441801399662E-03
(PID.TID 0000.0001) %MON dynstat_vvel_mean            =  -5.7595177032465E-08
(PID.TID 0000.0001) %MON dynstat_vvel_sd              =   1.3668947740431E-04
(PID.TID 0000.0001) %MON dynstat_vvel_del2            =   3.7586258746574E-07
(PID.TID 0000.0001) %MON dynstat_wvel_max             =   2.9109438750593E-04
(PID.TID 0000.0001) %MON dynstat_wvel_min             =  -2.8864721757340E-04
(PID.TID 0000.0001) %MON dynstat_wvel_mean            =   1.6098501116295E-10
(PID.TID 0000.0001) %MON dynstat_wvel_sd              =   1.0672402324035E-05
(PID.TID 0000.0001) %MON dynstat_wvel_del2            =   4.6040151407997E-08
(PID.TID 0000.0001) %MON dynstat_theta_max            =   1.2000000000000E+00
(PID.TID 0000.0001) %MON dynstat_theta_min            =  -1.0000000000000E+00
(PID.TID 0000.0001) %MON dynstat_theta_mean           =   5.6536196036627E-01
(PID.TID 0000.0001) %MON dynstat_theta_sd             =   8.4903347627009E-01
(PID.TID 0000.0001) %MON dynstat_theta_del2           =   1.0589845334762E-06
(PID.TID 0000.0001) %MON dynstat_salt_max             =   3.4700000000000E+01
(PID.TID 0000.0001) %MON dynstat_salt_min             =   3.4000000000000E+01
(PID.TID 0000.0001) %MON dynstat_salt_mean            =   3.4498058455831E+01
(PID.TID 0000.0001) %MON dynstat_salt_sd              =   2.7014742120055E-01
(PID.TID 0000.0001) %MON dynstat_salt_del2            =   4.0989169891758E-07
(PID.TID 0000.0001) %MON advcfl_uvel_max              =   7.9315815446659E-04
(PID.TID 0000.0001) %MON advcfl_vvel_max              =   7.2417783967675E-04
(PID.TID 0000.0001) %MON advcfl_wvel_max              =   1.4554719375296E-03
(PID.TID 0000.0001) %MON advcfl_W_hf_max              =   1.4554719375296E-03
(PID.TID 0000.0001) %MON pe_b_mean                    =  -6.8264860562562E-01
(PID.TID 0000.0001) %MON ke_max                       =   1.9407750653093E-05
(PID.TID 0000.0001) %MON ke_mean                      =   3.4093778616464E-08
(PID.TID 0000.0001) %MON ke_vol                       =   4.6182930194439E+12
(PID.TID 0000.0001) // =======================================================
(PID.TID 0000.0001) // End MONITOR dynamic field statistics
(PID.TID 0000.0001) // =======================================================
(PID.TID 0000.0001) // =======================================================
(PID.TID 0000.0001) // Begin OBCS MONITOR field statistics
(PID.TID 0000.0001) // =======================================================
(PID.TID 0000.0001) %MON obc_N_vVel_max               =  -6.9603561827054E-08
(PID.TID 0000.0001) %MON obc_N_vVel_min               =  -6.9603561827057E-08
(PID.TID 0000.0001) %MON obc_N_vVel_mean              =  -6.9603561827057E-08
(PID.TID 0000.0001) %MON obc_N_vVel_sd                =  -4.1020767071493E-28
(PID.TID 0000.0001) %MON obc_N_vVel_Int               =  -4.5938350805857E+00
(PID.TID 0000.0001) // =======================================================
(PID.TID 0000.0001) // End OBCS MONITOR field statistics
(PID.TID 0000.0001) // =======================================================
 cg2d: Sum(rhs),rhsMax =   3.01130496672898E+00  4.53048809194115E+02
(PID.TID 0000.0001)      cg2d_init_res =   1.40193600306225E-06
(PID.TID 0000.0001)      cg2d_iters(min,last) =      -1      71
(PID.TID 0000.0001)      cg2d_last_res =   8.83320086515858E-12
(PID.TID 0000.0001) // =======================================================
(PID.TID 0000.0001) // Begin MONITOR dynamic field statistics
(PID.TID 0000.0001) // =======================================================
(PID.TID 0000.0001) %MON time_tsnumber                =                   644
(PID.TID 0000.0001) %MON time_secondsf                =   6.4400000000000E+04
(PID.TID 0000.0001) %MON dynstat_eta_max              =   5.7972593648651E+00
(PID.TID 0000.0001) %MON dynstat_eta_min              =  -1.4175293238206E+01
(PID.TID 0000.0001) %MON dynstat_eta_mean             =  -2.5264224616609E+00
(PID.TID 0000.0001) %MON dynstat_eta_sd               =   4.9417712538486E+00
(PID.TID 0000.0001) %MON dynstat_eta_del2             =   1.9058159118538E-01
(PID.TID 0000.0001) %MON dynstat_uvel_max             =   2.6875315946100E-03
(PID.TID 0000.0001) %MON dynstat_uvel_min             =  -7.9553004767359E-03
(PID.TID 0000.0001) %MON dynstat_uvel_mean            =  -1.3493921798298E-09
(PID.TID 0000.0001) %MON dynstat_uvel_sd              =   2.2507441990866E-04
(PID.TID 0000.0001) %MON dynstat_uvel_del2            =   3.9220906857358E-07
(PID.TID 0000.0001) %MON dynstat_vvel_max             =   7.2577449335725E-03
(PID.TID 0000.0001) %MON dynstat_vvel_min             =  -2.2512588839891E-03
(PID.TID 0000.0001) %MON dynstat_vvel_mean            =  -5.7480366832812E-08
(PID.TID 0000.0001) %MON dynstat_vvel_sd              =   1.3682980918449E-04
(PID.TID 0000.0001) %MON dynstat_vvel_del2            =   3.7599597025320E-07
(PID.TID 0000.0001) %MON dynstat_wvel_max             =   2.9214339715081E-04
(PID.TID 0000.0001) %MON dynstat_wvel_min             =  -2.8943659749245E-04
(PID.TID 0000.0001) %MON dynstat_wvel_mean            =   1.6165900497514E-10
(PID.TID 0000.0001) %MON dynstat_wvel_sd              =   1.0420183726338E-05
(PID.TID 0000.0001) %MON dynstat_wvel_del2            =   4.4589561544301E-08
(PID.TID 0000.0001) %MON dynstat_theta_max            =   1.2000000000000E+00
(PID.TID 0000.0001) %MON dynstat_theta_min            =  -1.0000000000000E+00
(PID.TID 0000.0001) %MON dynstat_theta_mean           =   5.6536167555511E-01
(PID.TID 0000.0001) %MON dynstat_theta_sd             =   8.4903338268328E-01
(PID.TID 0000.0001) %MON dynstat_theta_del2           =   1.0612814130690E-06
(PID.TID 0000.0001) %MON dynstat_salt_max             =   3.4700000000000E+01
(PID.TID 0000.0001) %MON dynstat_salt_min             =   3.4000000000000E+01
(PID.TID 0000.0001) %MON dynstat_salt_mean            =   3.4498058342630E+01
(PID.TID 0000.0001) %MON dynstat_salt_sd              =   2.7014738865069E-01
(PID.TID 0000.0001) %MON dynstat_salt_del2            =   4.1078208190800E-07
(PID.TID 0000.0001) %MON advcfl_uvel_max              =   7.9553004767359E-04
(PID.TID 0000.0001) %MON advcfl_vvel_max              =   7.2577449335725E-04
(PID.TID 0000.0001) %MON advcfl_wvel_max              =   1.4607169857540E-03
(PID.TID 0000.0001) %MON advcfl_W_hf_max              =   1.4607169857540E-03
(PID.TID 0000.0001) %MON pe_b_mean                    =  -6.8264787680222E-01
(PID.TID 0000.0001) %MON ke_max                       =   1.9522490702837E-05
(PID.TID 0000.0001) %MON ke_mean                      =   3.4214003884155E-08
(PID.TID 0000.0001) %MON ke_vol                       =   4.6182930350023E+12
(PID.TID 0000.0001) // =======================================================
(PID.TID 0000.0001) // End MONITOR dynamic field statistics
(PID.TID 0000.0001) // =======================================================
(PID.TID 0000.0001) // =======================================================
(PID.TID 0000.0001) // Begin OBCS MONITOR field statistics
(PID.TID 0000.0001) // =======================================================
(PID.TID 0000.0001) %MON obc_N_vVel_max               =  -6.9555151062506E-08
(PID.TID 0000.0001) %MON obc_N_vVel_min               =  -6.9555151062508E-08
(PID.TID 0000.0001) %MON obc_N_vVel_mean              =  -6.9555151062506E-08
(PID.TID 0000.0001) %MON obc_N_vVel_sd                =   1.3469892657361E-14
(PID.TID 0000.0001) %MON obc_N_vVel_Int               =  -4.5906399701254E+00
(PID.TID 0000.0001) // =======================================================
(PID.TID 0000.0001) // End OBCS MONITOR field statistics
(PID.TID 0000.0001) // =======================================================
 cg2d: Sum(rhs),rhsMax =   3.01130190038936E+00  4.53048799812293E+02
(PID.TID 0000.0001)      cg2d_init_res =   1.38666687568157E-06
(PID.TID 0000.0001)      cg2d_iters(min,last) =      -1      71
(PID.TID 0000.0001)      cg2d_last_res =   8.86206257790633E-12
(PID.TID 0000.0001) // =======================================================
(PID.TID 0000.0001) // Begin MONITOR dynamic field statistics
(PID.TID 0000.0001) // =======================================================
(PID.TID 0000.0001) %MON time_tsnumber                =                   645
(PID.TID 0000.0001) %MON time_secondsf                =   6.4500000000000E+04
(PID.TID 0000.0001) %MON dynstat_eta_max              =   5.7972621810524E+00
(PID.TID 0000.0001) %MON dynstat_eta_min              =  -1.4175288466720E+01
(PID.TID 0000.0001) %MON dynstat_eta_mean             =  -2.5264198367479E+00
(PID.TID 0000.0001) %MON dynstat_eta_sd               =   4.9417704378274E+00
(PID.TID 0000.0001) %MON dynstat_eta_del2             =   1.9058159594027E-01
(PID.TID 0000.0001) %MON dynstat_uvel_max             =   2.6920737757035E-03
(PID.TID 0000.0001) %MON dynstat_uvel_min             =  -7.9790772432640E-03
(PID.TID 0000.0001) %MON dynstat_uvel_mean            =  -1.3495595272923E-09
(PID.TID 0000.0001) %MON dynstat_uvel_sd              =   2.2553418205691E-04
(PID.TID 0000.0001) %MON dynstat_uvel_del2            =   3.9299795410269E-07
(PID.TID 0000.0001) %MON dynstat_vvel_max             =   7.2737358376429E-03
(PID.TID 0000.0001) %MON dynstat_vvel_min             =  -2.2583478077092E-03
(PID.TID 0000.0001) %MON dynstat_vvel_mean            =  -5.7287159551422E-08
(PID.TID 0000.0001) %MON dynstat_vvel_sd              =   1.3697821146045E-04
(PID.TID 0000.0001) %MON dynstat_vvel_del2            =   3.7618765462721E-07
(PID.TID 0000.0001) %MON dynstat_wvel_max             =   2.9319468179549E-04
(PID.TID 0000.0001) %MON dynstat_wvel_min             =  -2.9022682649193E-04
(PID.TID 0000.0001) %MON dynstat_wvel_mean            =   1.6232056730714E-10
(PID.TID 0000.0001) %MON dynstat_wvel_sd              =   1.0186243151209E-05
(PID.TID 0000.0001) %MON dynstat_wvel_del2            =   4.3177147179553E-08
(PID.TID 0000.0001) %MON dynstat_theta_max            =   1.2000000000000E+00
(PID.TID 0000.0001) %MON dynstat_theta_min            =  -1.0000000000000E+00
(PID.TID 0000.0001) %MON dynstat_theta_mean           =   5.6536139052003E-01
(PID.TID 0000.0001) %MON dynstat_theta_sd             =   8.4903328887015E-01
(PID.TID 0000.0001) %MON dynstat_theta_del2           =   1.0635356408920E-06
(PID.TID 0000.0001) %MON dynstat_salt_max             =   3.4700000000000E+01
(PID.TID 0000.0001) %MON dynstat_salt_min             =   3.4000000000000E+01
(PID.TID 0000.0001) %MON dynstat_salt_mean            =   3.4498058229330E+01
(PID.TID 0000.0001) %MON dynstat_salt_sd              =   2.7014735601209E-01
(PID.TID 0000.0001) %MON dynstat_salt_del2            =   4.1166179017106E-07
(PID.TID 0000.0001) %MON advcfl_uvel_max              =   7.9790772432640E-04
(PID.TID 0000.0001) %MON advcfl_vvel_max              =   7.2737358376429E-04
(PID.TID 0000.0001) %MON advcfl_wvel_max              =   1.4659734089774E-03
(PID.TID 0000.0001) %MON advcfl_W_hf_max              =   1.4659734089775E-03
(PID.TID 0000.0001) %MON pe_b_mean                    =  -6.8264714707782E-01
(PID.TID 0000.0001) %MON ke_max                       =   1.9637863154870E-05
(PID.TID 0000.0001) %MON ke_mean                      =   3.4335959268241E-08
(PID.TID 0000.0001) %MON ke_vol                       =   4.6182930505777E+12
(PID.TID 0000.0001) // =======================================================
(PID.TID 0000.0001) // End MONITOR dynamic field statistics
(PID.TID 0000.0001) // =======================================================
(PID.TID 0000.0001) // =======================================================
(PID.TID 0000.0001) // Begin OBCS MONITOR field statistics
(PID.TID 0000.0001) // =======================================================
(PID.TID 0000.0001) %MON obc_N_vVel_max               =  -6.9433376719236E-08
(PID.TID 0000.0001) %MON obc_N_vVel_min               =  -6.9433376719237E-08
(PID.TID 0000.0001) %MON obc_N_vVel_mean              =  -6.9433376719237E-08
(PID.TID 0000.0001) %MON obc_N_vVel_sd                =  -1.7986028639039E-28
(PID.TID 0000.0001) %MON obc_N_vVel_Int               =  -4.5826028634697E+00
(PID.TID 0000.0001) // =======================================================
(PID.TID 0000.0001) // End OBCS MONITOR field statistics
(PID.TID 0000.0001) // =======================================================
 cg2d: Sum(rhs),rhsMax =   3.01129883081919E+00  4.53048790428041E+02
(PID.TID 0000.0001)      cg2d_init_res =   1.37311758778523E-06
(PID.TID 0000.0001)      cg2d_iters(min,last) =      -1      71
(PID.TID 0000.0001)      cg2d_last_res =   8.89070324515594E-12
(PID.TID 0000.0001) // =======================================================
(PID.TID 0000.0001) // Begin MONITOR dynamic field statistics
(PID.TID 0000.0001) // =======================================================
(PID.TID 0000.0001) %MON time_tsnumber                =                   646
(PID.TID 0000.0001) %MON time_secondsf                =   6.4600000000000E+04
(PID.TID 0000.0001) %MON dynstat_eta_max              =   5.7972649947535E+00
(PID.TID 0000.0001) %MON dynstat_eta_min              =  -1.4175283703651E+01
(PID.TID 0000.0001) %MON dynstat_eta_mean             =  -2.5264172091111E+00
(PID.TID 0000.0001) %MON dynstat_eta_sd               =   4.9417696211019E+00
(PID.TID 0000.0001) %MON dynstat_eta_del2             =   1.9058160070516E-01
(PID.TID 0000.0001) %MON dynstat_uvel_max             =   2.6966232807979E-03
(PID.TID 0000.0001) %MON dynstat_uvel_min             =  -8.0029119599798E-03
(PID.TID 0000.0001) %MON dynstat_uvel_mean            =  -1.3494704636954E-09
(PID.TID 0000.0001) %MON dynstat_uvel_sd              =   2.2599574990514E-04
(PID.TID 0000.0001) %MON dynstat_uvel_del2            =   3.9378881497968E-07
(PID.TID 0000.0001) %MON dynstat_vvel_max             =   7.2897511617547E-03
(PID.TID 0000.0001) %MON dynstat_vvel_min             =  -2.2654469302879E-03
(PID.TID 0000.0001) %MON dynstat_vvel_mean            =  -5.7021244912769E-08
(PID.TID 0000.0001) %MON dynstat_vvel_sd              =   1.3713943817321E-04
(PID.TID 0000.0001) %MON dynstat_vvel_del2            =   3.7647136618435E-07
(PID.TID 0000.0001) %MON dynstat_wvel_max             =   2.9424824730260E-04
(PID.TID 0000.0001) %MON dynstat_wvel_min             =  -2.9101790804004E-04
(PID.TID 0000.0001) %MON dynstat_wvel_mean            =   1.6295080824327E-10
(PID.TID 0000.0001) %MON dynstat_wvel_sd              =   9.9880394010168E-06
(PID.TID 0000.0001) %MON dynstat_wvel_del2            =   4.1907612103207E-08
(PID.TID 0000.0001) %MON dynstat_theta_max            =   1.2000000000000E+00
(PID.TID 0000.0001) %MON dynstat_theta_min            =  -1.0000000000000E+00
(PID.TID 0000.0001) %MON dynstat_theta_mean           =   5.6536110524637E-01
(PID.TID 0000.0001) %MON dynstat_theta_sd             =   8.4903319482985E-01
(PID.TID 0000.0001) %MON dynstat_theta_del2           =   1.0657059445163E-06
(PID.TID 0000.0001) %MON dynstat_salt_max             =   3.4700000000000E+01
(PID.TID 0000.0001) %MON dynstat_salt_min             =   3.4000000000000E+01
(PID.TID 0000.0001) %MON dynstat_salt_mean            =   3.4498058115928E+01
(PID.TID 0000.0001) %MON dynstat_salt_sd              =   2.7014732328463E-01
(PID.TID 0000.0001) %MON dynstat_salt_del2            =   4.1252003245210E-07
(PID.TID 0000.0001) %MON advcfl_uvel_max              =   8.0029119599798E-04
(PID.TID 0000.0001) %MON advcfl_vvel_max              =   7.2897511617547E-04
(PID.TID 0000.0001) %MON advcfl_wvel_max              =   1.4712412365130E-03
(PID.TID 0000.0001) %MON advcfl_W_hf_max              =   1.4712412365130E-03
(PID.TID 0000.0001) %MON pe_b_mean                    =  -6.8264641646423E-01
(PID.TID 0000.0001) %MON ke_max                       =   1.9753871113713E-05
(PID.TID 0000.0001) %MON ke_mean                      =   3.4460303081717E-08
(PID.TID 0000.0001) %MON ke_vol                       =   4.6182930661697E+12
(PID.TID 0000.0001) // =======================================================
(PID.TID 0000.0001) // End MONITOR dynamic field statistics
(PID.TID 0000.0001) // =======================================================
(PID.TID 0000.0001) // =======================================================
(PID.TID 0000.0001) // Begin OBCS MONITOR field statistics
(PID.TID 0000.0001) // =======================================================
(PID.TID 0000.0001) %MON obc_N_vVel_max               =  -6.9241901962569E-08
(PID.TID 0000.0001) %MON obc_N_vVel_min               =  -6.9241901962570E-08
(PID.TID 0000.0001) %MON obc_N_vVel_mean              =  -6.9241901962570E-08
(PID.TID 0000.0001) %MON obc_N_vVel_sd                =  -8.5196977763869E-29
(PID.TID 0000.0001) %MON obc_N_vVel_Int               =  -4.5699655295296E+00
(PID.TID 0000.0001) // =======================================================
(PID.TID 0000.0001) // End OBCS MONITOR field statistics
(PID.TID 0000.0001) // =======================================================
 cg2d: Sum(rhs),rhsMax =   3.01129575811847E+00  4.53048781037058E+02
(PID.TID 0000.0001)      cg2d_init_res =   1.36238226988592E-06
(PID.TID 0000.0001)      cg2d_iters(min,last) =      -1      71
(PID.TID 0000.0001)      cg2d_last_res =   8.91815677474912E-12
(PID.TID 0000.0001) // =======================================================
(PID.TID 0000.0001) // Begin MONITOR dynamic field statistics
(PID.TID 0000.0001) // =======================================================
(PID.TID 0000.0001) %MON time_tsnumber                =                   647
(PID.TID 0000.0001) %MON time_secondsf                =   6.4700000000000E+04
(PID.TID 0000.0001) %MON dynstat_eta_max              =   5.7972678057774E+00
(PID.TID 0000.0001) %MON dynstat_eta_min              =  -1.4175278949058E+01
(PID.TID 0000.0001) %MON dynstat_eta_mean             =  -2.5264145788104E+00
(PID.TID 0000.0001) %MON dynstat_eta_sd               =   4.9417688036838E+00
(PID.TID 0000.0001) %MON dynstat_eta_del2             =   1.9058160548002E-01
(PID.TID 0000.0001) %MON dynstat_uvel_max             =   2.7011800691881E-03
(PID.TID 0000.0001) %MON dynstat_uvel_min             =  -8.0268047421033E-03
(PID.TID 0000.0001) %MON dynstat_uvel_mean            =  -1.3489965994575E-09
(PID.TID 0000.0001) %MON dynstat_uvel_sd              =   2.2645912770302E-04
(PID.TID 0000.0001) %MON dynstat_uvel_del2            =   3.9458159521422E-07
(PID.TID 0000.0001) %MON dynstat_vvel_max             =   7.3057909577305E-03
(PID.TID 0000.0001) %MON dynstat_vvel_min             =  -2.2725562714019E-03
(PID.TID 0000.0001) %MON dynstat_vvel_mean            =  -5.6690804019569E-08
(PID.TID 0000.0001) %MON dynstat_vvel_sd              =   1.3731732058870E-04
(PID.TID 0000.0001) %MON dynstat_vvel_del2            =   3.7687409799190E-07
(PID.TID 0000.0001) %MON dynstat_wvel_max             =   2.9530409957383E-04
(PID.TID 0000.0001) %MON dynstat_wvel_min             =  -2.9180984564497E-04
(PID.TID 0000.0001) %MON dynstat_wvel_mean            =   1.6353275782461E-10
(PID.TID 0000.0001) %MON dynstat_wvel_sd              =   9.8409368539754E-06
(PID.TID 0000.0001) %MON dynstat_wvel_del2            =   4.0883156607891E-08
(PID.TID 0000.0001) %MON dynstat_theta_max            =   1.2000000000000E+00
(PID.TID 0000.0001) %MON dynstat_theta_min            =  -1.0000000000000E+00
(PID.TID 0000.0001) %MON dynstat_theta_mean           =   5.6536081971794E-01
(PID.TID 0000.0001) %MON dynstat_theta_sd             =   8.4903310057128E-01
(PID.TID 0000.0001) %MON dynstat_theta_del2           =   1.0677594345462E-06
(PID.TID 0000.0001) %MON dynstat_salt_max             =   3.4700000000000E+01
(PID.TID 0000.0001) %MON dynstat_salt_min             =   3.4000000000000E+01
(PID.TID 0000.0001) %MON dynstat_salt_mean            =   3.4498058002418E+01
(PID.TID 0000.0001) %MON dynstat_salt_sd              =   2.7014729047086E-01
(PID.TID 0000.0001) %MON dynstat_salt_del2            =   4.1334821625118E-07
(PID.TID 0000.0001) %MON advcfl_uvel_max              =   8.0268047421033E-04
(PID.TID 0000.0001) %MON advcfl_vvel_max              =   7.3057909577305E-04
(PID.TID 0000.0001) %MON advcfl_wvel_max              =   1.4765204978691E-03
(PID.TID 0000.0001) %MON advcfl_W_hf_max              =   1.4765204978691E-03
(PID.TID 0000.0001) %MON pe_b_mean                    =  -6.8264568497133E-01
(PID.TID 0000.0001) %MON ke_max                       =   1.9870517692723E-05
(PID.TID 0000.0001) %MON ke_mean                      =   3.4587570999691E-08
(PID.TID 0000.0001) %MON ke_vol                       =   4.6182930817779E+12
(PID.TID 0000.0001) // =======================================================
(PID.TID 0000.0001) // End MONITOR dynamic field statistics
(PID.TID 0000.0001) // =======================================================
(PID.TID 0000.0001) // =======================================================
(PID.TID 0000.0001) // Begin OBCS MONITOR field statistics
(PID.TID 0000.0001) // =======================================================
(PID.TID 0000.0001) %MON obc_N_vVel_max               =  -6.8986801997040E-08
(PID.TID 0000.0001) %MON obc_N_vVel_min               =  -6.8986801997041E-08
(PID.TID 0000.0001) %MON obc_N_vVel_mean              =  -6.8986801997041E-08
(PID.TID 0000.0001) %MON obc_N_vVel_sd                =  -2.0352611354702E-28
(PID.TID 0000.0001) %MON obc_N_vVel_Int               =  -4.5531289318047E+00
(PID.TID 0000.0001) // =======================================================
(PID.TID 0000.0001) // End OBCS MONITOR field statistics
(PID.TID 0000.0001) // =======================================================
 cg2d: Sum(rhs),rhsMax =   3.01129268237607E+00  4.53048771635123E+02
(PID.TID 0000.0001)      cg2d_init_res =   1.35536288018423E-06
(PID.TID 0000.0001)      cg2d_iters(min,last) =      -1      71
(PID.TID 0000.0001)      cg2d_last_res =   8.94370705441426E-12
(PID.TID 0000.0001) // =======================================================
(PID.TID 0000.0001) // Begin MONITOR dynamic field statistics
(PID.TID 0000.0001) // =======================================================
(PID.TID 0000.0001) %MON time_tsnumber                =                   648
(PID.TID 0000.0001) %MON time_secondsf                =   6.4800000000000E+04
(PID.TID 0000.0001) %MON dynstat_eta_max              =   5.7972706139456E+00
(PID.TID 0000.0001) %MON dynstat_eta_min              =  -1.4175274202970E+01
(PID.TID 0000.0001) %MON dynstat_eta_mean             =  -2.5264119458969E+00
(PID.TID 0000.0001) %MON dynstat_eta_sd               =   4.9417679855800E+00
(PID.TID 0000.0001) %MON dynstat_eta_del2             =   1.9058161026479E-01
(PID.TID 0000.0001) %MON dynstat_uvel_max             =   2.7057440995222E-03
(PID.TID 0000.0001) %MON dynstat_uvel_min             =  -8.0507557044820E-03
(PID.TID 0000.0001) %MON dynstat_uvel_mean            =  -1.3480236418063E-09
(PID.TID 0000.0001) %MON dynstat_uvel_sd              =   2.2692432278196E-04
(PID.TID 0000.0001) %MON dynstat_uvel_del2            =   3.9537626449643E-07
(PID.TID 0000.0001) %MON dynstat_vvel_max             =   7.3218552761447E-03
(PID.TID 0000.0001) %MON dynstat_vvel_min             =  -2.2796758511543E-03
(PID.TID 0000.0001) %MON dynstat_vvel_mean            =  -5.6306157742130E-08
(PID.TID 0000.0001) %MON dynstat_vvel_sd              =   1.3751450875250E-04
(PID.TID 0000.0001) %MON dynstat_vvel_del2            =   3.7741414947614E-07
(PID.TID 0000.0001) %MON dynstat_wvel_max             =   2.9636224452129E-04
(PID.TID 0000.0001) %MON dynstat_wvel_min             =  -2.9260264286152E-04
(PID.TID 0000.0001) %MON dynstat_wvel_mean            =   1.6405036115483E-10
(PID.TID 0000.0001) %MON dynstat_wvel_sd              =   9.7564117386788E-06
(PID.TID 0000.0001) %MON dynstat_wvel_del2            =   4.0191691866887E-08
(PID.TID 0000.0001) %MON dynstat_theta_max            =   1.2000000000000E+00
(PID.TID 0000.0001) %MON dynstat_theta_min            =  -1.0000000000000E+00
(PID.TID 0000.0001) %MON dynstat_theta_mean           =   5.6536053391727E-01
(PID.TID 0000.0001) %MON dynstat_theta_sd             =   8.4903300610229E-01
(PID.TID 0000.0001) %MON dynstat_theta_del2           =   1.0696736435222E-06
(PID.TID 0000.0001) %MON dynstat_salt_max             =   3.4700000000000E+01
(PID.TID 0000.0001) %MON dynstat_salt_min             =   3.4000000000000E+01
(PID.TID 0000.0001) %MON dynstat_salt_mean            =   3.4498057888795E+01
(PID.TID 0000.0001) %MON dynstat_salt_sd              =   2.7014725757336E-01
(PID.TID 0000.0001) %MON dynstat_salt_del2            =   4.1414047793452E-07
(PID.TID 0000.0001) %MON advcfl_uvel_max              =   8.0507557044820E-04
(PID.TID 0000.0001) %MON advcfl_vvel_max              =   7.3218552761447E-04
(PID.TID 0000.0001) %MON advcfl_wvel_max              =   1.4818112226064E-03
(PID.TID 0000.0001) %MON advcfl_W_hf_max              =   1.4818112226064E-03
(PID.TID 0000.0001) %MON pe_b_mean                    =  -6.8264495260672E-01
(PID.TID 0000.0001) %MON ke_max                       =   1.9987806014878E-05
(PID.TID 0000.0001) %MON ke_mean                      =   3.4718140416031E-08
(PID.TID 0000.0001) %MON ke_vol                       =   4.6182930974019E+12
(PID.TID 0000.0001) // =======================================================
(PID.TID 0000.0001) // End MONITOR dynamic field statistics
(PID.TID 0000.0001) // =======================================================
(PID.TID 0000.0001) // =======================================================
(PID.TID 0000.0001) // Begin OBCS MONITOR field statistics
(PID.TID 0000.0001) // =======================================================
(PID.TID 0000.0001) %MON obc_N_vVel_max               =  -6.8676232392057E-08
(PID.TID 0000.0001) %MON obc_N_vVel_min               =  -6.8676232392060E-08
(PID.TID 0000.0001) %MON obc_N_vVel_mean              =  -6.8676232392060E-08
(PID.TID 0000.0001) %MON obc_N_vVel_sd                =  -5.3642541555029E-28
(PID.TID 0000.0001) %MON obc_N_vVel_Int               =  -4.5326313378759E+00
(PID.TID 0000.0001) // =======================================================
(PID.TID 0000.0001) // End OBCS MONITOR field statistics
(PID.TID 0000.0001) // =======================================================
 cg2d: Sum(rhs),rhsMax =   3.01128960366728E+00  4.53048762218147E+02
(PID.TID 0000.0001)      cg2d_init_res =   1.35268771915768E-06
(PID.TID 0000.0001)      cg2d_iters(min,last) =      -1      71
(PID.TID 0000.0001)      cg2d_last_res =   8.96719586733796E-12
(PID.TID 0000.0001) // =======================================================
(PID.TID 0000.0001) // Begin MONITOR dynamic field statistics
(PID.TID 0000.0001) // =======================================================
(PID.TID 0000.0001) %MON time_tsnumber                =                   649
(PID.TID 0000.0001) %MON time_secondsf                =   6.4900000000000E+04
(PID.TID 0000.0001) %MON dynstat_eta_max              =   5.7972734191161E+00
(PID.TID 0000.0001) %MON dynstat_eta_min              =  -1.4175269465386E+01
(PID.TID 0000.0001) %MON dynstat_eta_mean             =  -2.5264093104108E+00
(PID.TID 0000.0001) %MON dynstat_eta_sd               =   4.9417671667931E+00
(PID.TID 0000.0001) %MON dynstat_eta_del2             =   1.9058161505944E-01
(PID.TID 0000.0001) %MON dynstat_uvel_max             =   2.7103153302885E-03
(PID.TID 0000.0001) %MON dynstat_uvel_min             =  -8.0747649615667E-03
(PID.TID 0000.0001) %MON dynstat_uvel_mean            =  -1.3464601525879E-09
(PID.TID 0000.0001) %MON dynstat_uvel_sd              =   2.2739134584010E-04
(PID.TID 0000.0001) %MON dynstat_uvel_del2            =   3.9617281918182E-07
(PID.TID 0000.0001) %MON dynstat_vvel_max             =   7.3379441670012E-03
(PID.TID 0000.0001) %MON dynstat_vvel_min             =  -2.2868056900816E-03
(PID.TID 0000.0001) %MON dynstat_vvel_mean            =  -5.5879409026358E-08
(PID.TID 0000.0001) %MON dynstat_vvel_sd              =   1.3773230256584E-04
(PID.TID 0000.0001) %MON dynstat_vvel_del2            =   3.7809981528536E-07
(PID.TID 0000.0001) %MON dynstat_wvel_max             =   2.9742268805888E-04
(PID.TID 0000.0001) %MON dynstat_wvel_min             =  -2.9339630328596E-04
(PID.TID 0000.0001) %MON dynstat_wvel_mean            =   1.6449074067862E-10
(PID.TID 0000.0001) %MON dynstat_wvel_sd              =   9.7405019321883E-06
(PID.TID 0000.0001) %MON dynstat_wvel_del2            =   3.9893804543925E-08
(PID.TID 0000.0001) %MON dynstat_theta_max            =   1.2000000000000E+00
(PID.TID 0000.0001) %MON dynstat_theta_min            =  -1.0000000000000E+00
(PID.TID 0000.0001) %MON dynstat_theta_mean           =   5.6536024782600E-01
(PID.TID 0000.0001) %MON dynstat_theta_sd             =   8.4903291142564E-01
(PID.TID 0000.0001) %MON dynstat_theta_del2           =   1.0714378481884E-06
(PID.TID 0000.0001) %MON dynstat_salt_max             =   3.4700000000000E+01
(PID.TID 0000.0001) %MON dynstat_salt_min             =   3.4000000000000E+01
(PID.TID 0000.0001) %MON dynstat_salt_mean            =   3.4498057775051E+01
(PID.TID 0000.0001) %MON dynstat_salt_sd              =   2.7014722459307E-01
(PID.TID 0000.0001) %MON dynstat_salt_del2            =   4.1489403290410E-07
(PID.TID 0000.0001) %MON advcfl_uvel_max              =   8.0747649615667E-04
(PID.TID 0000.0001) %MON advcfl_vvel_max              =   7.3379441670012E-04
(PID.TID 0000.0001) %MON advcfl_wvel_max              =   1.4871134402944E-03
(PID.TID 0000.0001) %MON advcfl_W_hf_max              =   1.4871134402944E-03
(PID.TID 0000.0001) %MON pe_b_mean                    =  -6.8264421937551E-01
(PID.TID 0000.0001) %MON ke_max                       =   2.0105739212822E-05
(PID.TID 0000.0001) %MON ke_mean                      =   3.4852206658757E-08
(PID.TID 0000.0001) %MON ke_vol                       =   4.6182931130414E+12
(PID.TID 0000.0001) // =======================================================
(PID.TID 0000.0001) // End MONITOR dynamic field statistics
(PID.TID 0000.0001) // =======================================================
(PID.TID 0000.0001) // =======================================================
(PID.TID 0000.0001) // Begin OBCS MONITOR field statistics
(PID.TID 0000.0001) // =======================================================
(PID.TID 0000.0001) %MON obc_N_vVel_max               =  -6.8320282441668E-08
(PID.TID 0000.0001) %MON obc_N_vVel_min               =  -6.8320282441669E-08
(PID.TID 0000.0001) %MON obc_N_vVel_mean              =  -6.8320282441668E-08
(PID.TID 0000.0001) %MON obc_N_vVel_sd                =   1.9860273225978E-15
(PID.TID 0000.0001) %MON obc_N_vVel_Int               =  -4.5091386411501E+00
(PID.TID 0000.0001) // =======================================================
(PID.TID 0000.0001) // End OBCS MONITOR field statistics
(PID.TID 0000.0001) // =======================================================
 cg2d: Sum(rhs),rhsMax =   3.01128652204630E+00  4.53048752782295E+02
(PID.TID 0000.0001)      cg2d_init_res =   1.35460137555698E-06
(PID.TID 0000.0001)      cg2d_iters(min,last) =      -1      71
(PID.TID 0000.0001)      cg2d_last_res =   8.98872515131293E-12
(PID.TID 0000.0001) // =======================================================
(PID.TID 0000.0001) // Begin MONITOR dynamic field statistics
(PID.TID 0000.0001) // =======================================================
(PID.TID 0000.0001) %MON time_tsnumber                =                   650
(PID.TID 0000.0001) %MON time_secondsf                =   6.5000000000000E+04
(PID.TID 0000.0001) %MON dynstat_eta_max              =   5.7972762211725E+00
(PID.TID 0000.0001) %MON dynstat_eta_min              =  -1.4175264736276E+01
(PID.TID 0000.0001) %MON dynstat_eta_mean             =  -2.5264066723763E+00
(PID.TID 0000.0001) %MON dynstat_eta_sd               =   4.9417663473177E+00
(PID.TID 0000.0001) %MON dynstat_eta_del2             =   1.9058161986385E-01
(PID.TID 0000.0001) %MON dynstat_uvel_max             =   2.7148937193431E-03
(PID.TID 0000.0001) %MON dynstat_uvel_min             =  -8.0988326273923E-03
(PID.TID 0000.0001) %MON dynstat_uvel_mean            =  -1.3442399512599E-09
(PID.TID 0000.0001) %MON dynstat_uvel_sd              =   2.2786021104937E-04
(PID.TID 0000.0001) %MON dynstat_uvel_del2            =   3.9697128171434E-07
(PID.TID 0000.0001) %MON dynstat_vvel_max             =   7.3540576792779E-03
(PID.TID 0000.0001) %MON dynstat_vvel_min             =  -2.2939458091482E-03
(PID.TID 0000.0001) %MON dynstat_vvel_mean            =  -5.5424021347437E-08
(PID.TID 0000.0001) %MON dynstat_vvel_sd              =   1.3797058431994E-04
(PID.TID 0000.0001) %MON dynstat_vvel_del2            =   3.7892883756141E-07
(PID.TID 0000.0001) %MON dynstat_wvel_max             =   2.9848543613656E-04
(PID.TID 0000.0001) %MON dynstat_wvel_min             =  -2.9419083057454E-04
(PID.TID 0000.0001) %MON dynstat_wvel_mean            =   1.6484378253811E-10
(PID.TID 0000.0001) %MON dynstat_wvel_sd              =   9.7929237109883E-06
(PID.TID 0000.0001) %MON dynstat_wvel_del2            =   4.0012040359475E-08
(PID.TID 0000.0001) %MON dynstat_theta_max            =   1.2000000000000E+00
(PID.TID 0000.0001) %MON dynstat_theta_min            =  -1.0000000000000E+00
(PID.TID 0000.0001) %MON dynstat_theta_mean           =   5.6535996142475E-01
(PID.TID 0000.0001) %MON dynstat_theta_sd             =   8.4903281653806E-01
(PID.TID 0000.0001) %MON dynstat_theta_del2           =   1.0730540031965E-06
(PID.TID 0000.0001) %MON dynstat_salt_max             =   3.4700000000000E+01
(PID.TID 0000.0001) %MON dynstat_salt_min             =   3.4000000000000E+01
(PID.TID 0000.0001) %MON dynstat_salt_mean            =   3.4498057661182E+01
(PID.TID 0000.0001) %MON dynstat_salt_sd              =   2.7014719152864E-01
(PID.TID 0000.0001) %MON dynstat_salt_del2            =   4.1560941835215E-07
(PID.TID 0000.0001) %MON advcfl_uvel_max              =   8.0988326273923E-04
(PID.TID 0000.0001) %MON advcfl_vvel_max              =   7.3540576792779E-04
(PID.TID 0000.0001) %MON advcfl_wvel_max              =   1.4924271806828E-03
(PID.TID 0000.0001) %MON advcfl_W_hf_max              =   1.4924271806828E-03
(PID.TID 0000.0001) %MON pe_b_mean                    =  -6.8264348527882E-01
(PID.TID 0000.0001) %MON ke_max                       =   2.0224320428804E-05
(PID.TID 0000.0001) %MON ke_mean                      =   3.4989772633214E-08
(PID.TID 0000.0001) %MON ke_vol                       =   4.6182931286962E+12
(PID.TID 0000.0001) // =======================================================
(PID.TID 0000.0001) // End MONITOR dynamic field statistics
(PID.TID 0000.0001) // =======================================================
(PID.TID 0000.0001) // =======================================================
(PID.TID 0000.0001) // Begin OBCS MONITOR field statistics
(PID.TID 0000.0001) // =======================================================
(PID.TID 0000.0001) %MON obc_N_vVel_max               =  -6.7930509507526E-08
(PID.TID 0000.0001) %MON obc_N_vVel_min               =  -6.7930509507528E-08
(PID.TID 0000.0001) %MON obc_N_vVel_mean              =  -6.7930509507528E-08
(PID.TID 0000.0001) %MON obc_N_vVel_sd                =  -3.5183196372857E-28
(PID.TID 0000.0001) %MON obc_N_vVel_Int               =  -4.4834136274968E+00
(PID.TID 0000.0001) // =======================================================
(PID.TID 0000.0001) // End OBCS MONITOR field statistics
(PID.TID 0000.0001) // =======================================================
 cg2d: Sum(rhs),rhsMax =   3.01128343755020E+00  4.53048743324049E+02
(PID.TID 0000.0001)      cg2d_init_res =   1.36102238911883E-06
(PID.TID 0000.0001)      cg2d_iters(min,last) =      -1      71
(PID.TID 0000.0001)      cg2d_last_res =   9.00926169699029E-12
(PID.TID 0000.0001) // =======================================================
(PID.TID 0000.0001) // Begin MONITOR dynamic field statistics
(PID.TID 0000.0001) // =======================================================
(PID.TID 0000.0001) %MON time_tsnumber                =                   651
(PID.TID 0000.0001) %MON time_secondsf                =   6.5100000000000E+04
(PID.TID 0000.0001) %MON dynstat_eta_max              =   5.7972790200245E+00
(PID.TID 0000.0001) %MON dynstat_eta_min              =  -1.4175260015578E+01
(PID.TID 0000.0001) %MON dynstat_eta_mean             =  -2.5264040318049E+00
(PID.TID 0000.0001) %MON dynstat_eta_sd               =   4.9417655271462E+00
(PID.TID 0000.0001) %MON dynstat_eta_del2             =   1.9058162467802E-01
(PID.TID 0000.0001) %MON dynstat_uvel_max             =   2.7194792242309E-03
(PID.TID 0000.0001) %MON dynstat_uvel_min             =  -8.1229588156786E-03
(PID.TID 0000.0001) %MON dynstat_uvel_mean            =  -1.3413231106016E-09
(PID.TID 0000.0001) %MON dynstat_uvel_sd              =   2.2833093598277E-04
(PID.TID 0000.0001) %MON dynstat_uvel_del2            =   3.9777169820464E-07
(PID.TID 0000.0001) %MON dynstat_vvel_max             =   7.3701958612611E-03
(PID.TID 0000.0001) %MON dynstat_vvel_min             =  -2.3010962297425E-03
(PID.TID 0000.0001) %MON dynstat_vvel_mean            =  -5.4954342319254E-08
(PID.TID 0000.0001) %MON dynstat_vvel_sd              =   1.3822785667085E-04
(PID.TID 0000.0001) %MON dynstat_vvel_del2            =   3.7988867058316E-07
(PID.TID 0000.0001) %MON dynstat_wvel_max             =   2.9955049468498E-04
(PID.TID 0000.0001) %MON dynstat_wvel_min             =  -2.9498622847546E-04
(PID.TID 0000.0001) %MON dynstat_wvel_mean            =   1.6510254065103E-10
(PID.TID 0000.0001) %MON dynstat_wvel_sd              =   9.9071404270648E-06
(PID.TID 0000.0001) %MON dynstat_wvel_del2            =   4.0526454533143E-08
(PID.TID 0000.0001) %MON dynstat_theta_max            =   1.2000000000000E+00
(PID.TID 0000.0001) %MON dynstat_theta_min            =  -1.0000000000000E+00
(PID.TID 0000.0001) %MON dynstat_theta_mean           =   5.6535967469395E-01
(PID.TID 0000.0001) %MON dynstat_theta_sd             =   8.4903272143901E-01
(PID.TID 0000.0001) %MON dynstat_theta_del2           =   1.0745368642912E-06
(PID.TID 0000.0001) %MON dynstat_salt_max             =   3.4700000000000E+01
(PID.TID 0000.0001) %MON dynstat_salt_min             =   3.4000000000000E+01
(PID.TID 0000.0001) %MON dynstat_salt_mean            =   3.4498057547181E+01
(PID.TID 0000.0001) %MON dynstat_salt_sd              =   2.7014715838003E-01
(PID.TID 0000.0001) %MON dynstat_salt_del2            =   4.1629050852055E-07
(PID.TID 0000.0001) %MON advcfl_uvel_max              =   8.1229588156786E-04
(PID.TID 0000.0001) %MON advcfl_vvel_max              =   7.3701958612611E-04
(PID.TID 0000.0001) %MON advcfl_wvel_max              =   1.4977524734249E-03
(PID.TID 0000.0001) %MON advcfl_W_hf_max              =   1.4977524734249E-03
(PID.TID 0000.0001) %MON pe_b_mean                    =  -6.8264275031530E-01
(PID.TID 0000.0001) %MON ke_max                       =   2.0343552815268E-05
(PID.TID 0000.0001) %MON ke_mean                      =   3.5130652496027E-08
(PID.TID 0000.0001) %MON ke_vol                       =   4.6182931443661E+12
(PID.TID 0000.0001) // =======================================================
(PID.TID 0000.0001) // End MONITOR dynamic field statistics
(PID.TID 0000.0001) // =======================================================
(PID.TID 0000.0001) // =======================================================
(PID.TID 0000.0001) // Begin OBCS MONITOR field statistics
(PID.TID 0000.0001) // =======================================================
(PID.TID 0000.0001) %MON obc_N_vVel_max               =  -6.7519546452527E-08
(PID.TID 0000.0001) %MON obc_N_vVel_min               =  -6.7519546452529E-08
(PID.TID 0000.0001) %MON obc_N_vVel_mean              =  -6.7519546452529E-08
(PID.TID 0000.0001) %MON obc_N_vVel_sd                =  -2.3586941066108E-28
(PID.TID 0000.0001) %MON obc_N_vVel_Int               =  -4.4562900658669E+00
(PID.TID 0000.0001) // =======================================================
(PID.TID 0000.0001) // End OBCS MONITOR field statistics
(PID.TID 0000.0001) // =======================================================
 cg2d: Sum(rhs),rhsMax =   3.01128035019661E+00  4.53048733840276E+02
(PID.TID 0000.0001)      cg2d_init_res =   1.37149064993116E-06
(PID.TID 0000.0001)      cg2d_iters(min,last) =      -1      71
(PID.TID 0000.0001)      cg2d_last_res =   9.02951689318005E-12
(PID.TID 0000.0001) // =======================================================
(PID.TID 0000.0001) // Begin MONITOR dynamic field statistics
(PID.TID 0000.0001) // =======================================================
(PID.TID 0000.0001) %MON time_tsnumber                =                   652
(PID.TID 0000.0001) %MON time_secondsf                =   6.5200000000000E+04
(PID.TID 0000.0001) %MON dynstat_eta_max              =   5.7972818156219E+00
(PID.TID 0000.0001) %MON dynstat_eta_min              =  -1.4175255303192E+01
(PID.TID 0000.0001) %MON dynstat_eta_mean             =  -2.5264013886938E+00
(PID.TID 0000.0001) %MON dynstat_eta_sd               =   4.9417647062651E+00
(PID.TID 0000.0001) %MON dynstat_eta_del2             =   1.9058162950195E-01
(PID.TID 0000.0001) %MON dynstat_uvel_max             =   2.7240718024562E-03
(PID.TID 0000.0001) %MON dynstat_uvel_min             =  -8.1471436399960E-03
(PID.TID 0000.0001) %MON dynstat_uvel_mean            =  -1.3376775969053E-09
(PID.TID 0000.0001) %MON dynstat_uvel_sd              =   2.2880354138407E-04
(PID.TID 0000.0001) %MON dynstat_uvel_del2            =   3.9857413501560E-07
(PID.TID 0000.0001) %MON dynstat_vvel_max             =   7.3863587608141E-03
(PID.TID 0000.0001) %MON dynstat_vvel_min             =  -2.3082569733734E-03
(PID.TID 0000.0001) %MON dynstat_vvel_mean            =  -5.4485080305459E-08
(PID.TID 0000.0001) %MON dynstat_vvel_sd              =   1.3850138157917E-04
(PID.TID 0000.0001) %MON dynstat_vvel_del2            =   3.8095753199124E-07
(PID.TID 0000.0001) %MON dynstat_wvel_max             =   3.0061786965533E-04
(PID.TID 0000.0001) %MON dynstat_wvel_min             =  -2.9578250075178E-04
(PID.TID 0000.0001) %MON dynstat_wvel_mean            =   1.6526337986009E-10
(PID.TID 0000.0001) %MON dynstat_wvel_sd              =   1.0071370034629E-05
(PID.TID 0000.0001) %MON dynstat_wvel_del2            =   4.1378334025974E-08
(PID.TID 0000.0001) %MON dynstat_theta_max            =   1.2000000000000E+00
(PID.TID 0000.0001) %MON dynstat_theta_min            =  -1.0000000000000E+00
(PID.TID 0000.0001) %MON dynstat_theta_mean           =   5.6535938761411E-01
(PID.TID 0000.0001) %MON dynstat_theta_sd             =   8.4903262611505E-01
(PID.TID 0000.0001) %MON dynstat_theta_del2           =   1.0759126501701E-06
(PID.TID 0000.0001) %MON dynstat_salt_max             =   3.4700000000000E+01
(PID.TID 0000.0001) %MON dynstat_salt_min             =   3.4000000000000E+01
(PID.TID 0000.0001) %MON dynstat_salt_mean            =   3.4498057433042E+01
(PID.TID 0000.0001) %MON dynstat_salt_sd              =   2.7014712514296E-01
(PID.TID 0000.0001) %MON dynstat_salt_del2            =   4.1694419451552E-07
(PID.TID 0000.0001) %MON advcfl_uvel_max              =   8.1471436399960E-04
(PID.TID 0000.0001) %MON advcfl_vvel_max              =   7.3863587608141E-04
(PID.TID 0000.0001) %MON advcfl_wvel_max              =   1.5030893482766E-03
(PID.TID 0000.0001) %MON advcfl_W_hf_max              =   1.5030893482766E-03
(PID.TID 0000.0001) %MON pe_b_mean                    =  -6.8264201448055E-01
(PID.TID 0000.0001) %MON ke_max                       =   2.0463439535744E-05
(PID.TID 0000.0001) %MON ke_mean                      =   3.5274488925356E-08
(PID.TID 0000.0001) %MON ke_vol                       =   4.6182931600511E+12
(PID.TID 0000.0001) // =======================================================
(PID.TID 0000.0001) // End MONITOR dynamic field statistics
(PID.TID 0000.0001) // =======================================================
(PID.TID 0000.0001) // =======================================================
(PID.TID 0000.0001) // Begin OBCS MONITOR field statistics
(PID.TID 0000.0001) // =======================================================
(PID.TID 0000.0001) %MON obc_N_vVel_max               =  -6.7100658909633E-08
(PID.TID 0000.0001) %MON obc_N_vVel_min               =  -6.7100658909634E-08
(PID.TID 0000.0001) %MON obc_N_vVel_mean              =  -6.7100658909634E-08
(PID.TID 0000.0001) %MON obc_N_vVel_sd                =  -1.0255191767873E-28
(PID.TID 0000.0001) %MON obc_N_vVel_Int               =  -4.4286434880358E+00
(PID.TID 0000.0001) // =======================================================
(PID.TID 0000.0001) // End OBCS MONITOR field statistics
(PID.TID 0000.0001) // =======================================================
 cg2d: Sum(rhs),rhsMax =   3.01127725998306E+00  4.53048724328317E+02
(PID.TID 0000.0001)      cg2d_init_res =   1.38522767874574E-06
(PID.TID 0000.0001)      cg2d_iters(min,last) =      -1      71
(PID.TID 0000.0001)      cg2d_last_res =   9.05037501086802E-12
(PID.TID 0000.0001) // =======================================================
(PID.TID 0000.0001) // Begin MONITOR dynamic field statistics
(PID.TID 0000.0001) // =======================================================
(PID.TID 0000.0001) %MON time_tsnumber                =                   653
(PID.TID 0000.0001) %MON time_secondsf                =   6.5300000000000E+04
(PID.TID 0000.0001) %MON dynstat_eta_max              =   5.7972846079285E+00
(PID.TID 0000.0001) %MON dynstat_eta_min              =  -1.4175250598973E+01
(PID.TID 0000.0001) %MON dynstat_eta_mean             =  -2.5263987430263E+00
(PID.TID 0000.0001) %MON dynstat_eta_sd               =   4.9417638846560E+00
(PID.TID 0000.0001) %MON dynstat_eta_del2             =   1.9058163433558E-01
(PID.TID 0000.0001) %MON dynstat_uvel_max             =   2.7286714145927E-03
(PID.TID 0000.0001) %MON dynstat_uvel_min             =  -8.1713872136975E-03
(PID.TID 0000.0001) %MON dynstat_uvel_mean            =  -1.3332999034775E-09
(PID.TID 0000.0001) %MON dynstat_uvel_sd              =   2.2927805077166E-04
(PID.TID 0000.0001) %MON dynstat_uvel_del2            =   3.9937867396384E-07
(PID.TID 0000.0001) %MON dynstat_vvel_max             =   7.4025464251049E-03
(PID.TID 0000.0001) %MON dynstat_vvel_min             =  -2.3154280618085E-03
(PID.TID 0000.0001) %MON dynstat_vvel_mean            =  -5.4030846369650E-08
(PID.TID 0000.0001) %MON dynstat_vvel_sd              =   1.3878740803844E-04
(PID.TID 0000.0001) %MON dynstat_vvel_del2            =   3.8210614499422E-07
(PID.TID 0000.0001) %MON dynstat_wvel_max             =   3.0168756700762E-04
(PID.TID 0000.0001) %MON dynstat_wvel_min             =  -2.9657965123715E-04
(PID.TID 0000.0001) %MON dynstat_wvel_mean            =   1.6532613412043E-10
(PID.TID 0000.0001) %MON dynstat_wvel_sd              =   1.0270226185376E-05
(PID.TID 0000.0001) %MON dynstat_wvel_del2            =   4.2480582388933E-08
(PID.TID 0000.0001) %MON dynstat_theta_max            =   1.2000000000000E+00
(PID.TID 0000.0001) %MON dynstat_theta_min            =  -1.0000000000000E+00
(PID.TID 0000.0001) %MON dynstat_theta_mean           =   5.6535910016617E-01
(PID.TID 0000.0001) %MON dynstat_theta_sd             =   8.4903253056008E-01
(PID.TID 0000.0001) %MON dynstat_theta_del2           =   1.0772171789399E-06
(PID.TID 0000.0001) %MON dynstat_salt_max             =   3.4700000000000E+01
(PID.TID 0000.0001) %MON dynstat_salt_min             =   3.4000000000000E+01
(PID.TID 0000.0001) %MON dynstat_salt_mean            =   3.4498057318757E+01
(PID.TID 0000.0001) %MON dynstat_salt_sd              =   2.7014709181535E-01
(PID.TID 0000.0001) %MON dynstat_salt_del2            =   4.1757986391239E-07
(PID.TID 0000.0001) %MON advcfl_uvel_max              =   8.1713872136975E-04
(PID.TID 0000.0001) %MON advcfl_vvel_max              =   7.4025464251049E-04
(PID.TID 0000.0001) %MON advcfl_wvel_max              =   1.5084378350381E-03
(PID.TID 0000.0001) %MON advcfl_W_hf_max              =   1.5084378350381E-03
(PID.TID 0000.0001) %MON pe_b_mean                    =  -6.8264127776719E-01
(PID.TID 0000.0001) %MON ke_max                       =   2.0583983764682E-05
(PID.TID 0000.0001) %MON ke_mean                      =   3.5420782582811E-08
(PID.TID 0000.0001) %MON ke_vol                       =   4.6182931757512E+12
(PID.TID 0000.0001) // =======================================================
(PID.TID 0000.0001) // End MONITOR dynamic field statistics
(PID.TID 0000.0001) // =======================================================
(PID.TID 0000.0001) // =======================================================
(PID.TID 0000.0001) // Begin OBCS MONITOR field statistics
(PID.TID 0000.0001) // =======================================================
(PID.TID 0000.0001) %MON obc_N_vVel_max               =  -6.6687310878103E-08
(PID.TID 0000.0001) %MON obc_N_vVel_min               =  -6.6687310878104E-08
(PID.TID 0000.0001) %MON obc_N_vVel_mean              =  -6.6687310878103E-08
(PID.TID 0000.0001) %MON obc_N_vVel_sd                =   1.0009262458497E-14
(PID.TID 0000.0001) %MON obc_N_vVel_Int               =  -4.4013625179548E+00
(PID.TID 0000.0001) // =======================================================
(PID.TID 0000.0001) // End OBCS MONITOR field statistics
(PID.TID 0000.0001) // =======================================================
 cg2d: Sum(rhs),rhsMax =   3.01127416688585E+00  4.53048714786036E+02
(PID.TID 0000.0001)      cg2d_init_res =   1.40121233862736E-06
(PID.TID 0000.0001)      cg2d_iters(min,last) =      -1      71
(PID.TID 0000.0001)      cg2d_last_res =   9.07280599487297E-12
(PID.TID 0000.0001) // =======================================================
(PID.TID 0000.0001) // Begin MONITOR dynamic field statistics
(PID.TID 0000.0001) // =======================================================
(PID.TID 0000.0001) %MON time_tsnumber                =                   654
(PID.TID 0000.0001) %MON time_secondsf                =   6.5400000000000E+04
(PID.TID 0000.0001) %MON dynstat_eta_max              =   5.7972873969496E+00
(PID.TID 0000.0001) %MON dynstat_eta_min              =  -1.4175245902764E+01
(PID.TID 0000.0001) %MON dynstat_eta_mean             =  -2.5263960947704E+00
(PID.TID 0000.0001) %MON dynstat_eta_sd               =   4.9417630622955E+00
(PID.TID 0000.0001) %MON dynstat_eta_del2             =   1.9058163917885E-01
(PID.TID 0000.0001) %MON dynstat_uvel_max             =   2.7332780229798E-03
(PID.TID 0000.0001) %MON dynstat_uvel_min             =  -8.1956896497086E-03
(PID.TID 0000.0001) %MON dynstat_uvel_mean            =  -1.3282086580024E-09
(PID.TID 0000.0001) %MON dynstat_uvel_sd              =   2.2975448993342E-04
(PID.TID 0000.0001) %MON dynstat_uvel_del2            =   4.0018540689746E-07
(PID.TID 0000.0001) %MON dynstat_vvel_max             =   7.4187589010104E-03
(PID.TID 0000.0001) %MON dynstat_vvel_min             =  -2.3226095169910E-03
(PID.TID 0000.0001) %MON dynstat_vvel_mean            =  -5.3605596309806E-08
(PID.TID 0000.0001) %MON dynstat_vvel_sd              =   1.3908146968076E-04
(PID.TID 0000.0001) %MON dynstat_vvel_del2            =   3.8330001939364E-07
(PID.TID 0000.0001) %MON dynstat_wvel_max             =   3.0275959273076E-04
(PID.TID 0000.0001) %MON dynstat_wvel_min             =  -2.9737768381018E-04
(PID.TID 0000.0001) %MON dynstat_wvel_mean            =   1.6529403939797E-10
(PID.TID 0000.0001) %MON dynstat_wvel_sd              =   1.0486561048347E-05
(PID.TID 0000.0001) %MON dynstat_wvel_del2            =   4.3730919627920E-08
(PID.TID 0000.0001) %MON dynstat_theta_max            =   1.2000000000000E+00
(PID.TID 0000.0001) %MON dynstat_theta_min            =  -1.0000000000000E+00
(PID.TID 0000.0001) %MON dynstat_theta_mean           =   5.6535881233173E-01
(PID.TID 0000.0001) %MON dynstat_theta_sd             =   8.4903243477695E-01
(PID.TID 0000.0001) %MON dynstat_theta_del2           =   1.0784925039729E-06
(PID.TID 0000.0001) %MON dynstat_salt_max             =   3.4700000000000E+01
(PID.TID 0000.0001) %MON dynstat_salt_min             =   3.4000000000000E+01
(PID.TID 0000.0001) %MON dynstat_salt_mean            =   3.4498057204323E+01
(PID.TID 0000.0001) %MON dynstat_salt_sd              =   2.7014705839811E-01
(PID.TID 0000.0001) %MON dynstat_salt_del2            =   4.1820851821715E-07
(PID.TID 0000.0001) %MON advcfl_uvel_max              =   8.1956896497086E-04
(PID.TID 0000.0001) %MON advcfl_vvel_max              =   7.4187589010104E-04
(PID.TID 0000.0001) %MON advcfl_wvel_max              =   1.5137979636538E-03
(PID.TID 0000.0001) %MON advcfl_W_hf_max              =   1.5137979636538E-03
(PID.TID 0000.0001) %MON pe_b_mean                    =  -6.8264054016484E-01
(PID.TID 0000.0001) %MON ke_max                       =   2.0705188686851E-05
(PID.TID 0000.0001) %MON ke_mean                      =   3.5568931490741E-08
(PID.TID 0000.0001) %MON ke_vol                       =   4.6182931914664E+12
(PID.TID 0000.0001) // =======================================================
(PID.TID 0000.0001) // End MONITOR dynamic field statistics
(PID.TID 0000.0001) // =======================================================
(PID.TID 0000.0001) // =======================================================
(PID.TID 0000.0001) // Begin OBCS MONITOR field statistics
(PID.TID 0000.0001) // =======================================================
(PID.TID 0000.0001) %MON obc_N_vVel_max               =  -6.6292686517553E-08
(PID.TID 0000.0001) %MON obc_N_vVel_min               =  -6.6292686517554E-08
(PID.TID 0000.0001) %MON obc_N_vVel_mean              =  -6.6292686517554E-08
(PID.TID 0000.0001) %MON obc_N_vVel_sd                =  -5.6797985175913E-29
(PID.TID 0000.0001) %MON obc_N_vVel_Int               =  -4.3753173101585E+00
(PID.TID 0000.0001) // =======================================================
(PID.TID 0000.0001) // End OBCS MONITOR field statistics
(PID.TID 0000.0001) // =======================================================
 cg2d: Sum(rhs),rhsMax =   3.01127107086111E+00  4.53048705211855E+02
(PID.TID 0000.0001)      cg2d_init_res =   1.41829243046969E-06
(PID.TID 0000.0001)      cg2d_iters(min,last) =      -1      71
(PID.TID 0000.0001)      cg2d_last_res =   9.09754485675752E-12
(PID.TID 0000.0001) // =======================================================
(PID.TID 0000.0001) // Begin MONITOR dynamic field statistics
(PID.TID 0000.0001) // =======================================================
(PID.TID 0000.0001) %MON time_tsnumber                =                   655
(PID.TID 0000.0001) %MON time_secondsf                =   6.5500000000000E+04
(PID.TID 0000.0001) %MON dynstat_eta_max              =   5.7972901827115E+00
(PID.TID 0000.0001) %MON dynstat_eta_min              =  -1.4175241214362E+01
(PID.TID 0000.0001) %MON dynstat_eta_mean             =  -2.5263934438806E+00
(PID.TID 0000.0001) %MON dynstat_eta_sd               =   4.9417622391572E+00
(PID.TID 0000.0001) %MON dynstat_eta_del2             =   1.9058164403171E-01
(PID.TID 0000.0001) %MON dynstat_uvel_max             =   2.7378915895344E-03
(PID.TID 0000.0001) %MON dynstat_uvel_min             =  -8.2200510607207E-03
(PID.TID 0000.0001) %MON dynstat_uvel_mean            =  -1.3224284106521E-09
(PID.TID 0000.0001) %MON dynstat_uvel_sd              =   2.3023288633562E-04
(PID.TID 0000.0001) %MON dynstat_uvel_del2            =   4.0099442989035E-07
(PID.TID 0000.0001) %MON dynstat_vvel_max             =   7.4349962350406E-03
(PID.TID 0000.0001) %MON dynstat_vvel_min             =  -2.3298013609168E-03
(PID.TID 0000.0001) %MON dynstat_vvel_mean            =  -5.3222159590583E-08
(PID.TID 0000.0001) %MON dynstat_vvel_sd              =   1.3937872847991E-04
(PID.TID 0000.0001) %MON dynstat_vvel_del2            =   3.8450207904581E-07
(PID.TID 0000.0001) %MON dynstat_wvel_max             =   3.0383395282860E-04
(PID.TID 0000.0001) %MON dynstat_wvel_min             =  -2.9817660240012E-04
(PID.TID 0000.0001) %MON dynstat_wvel_mean            =   1.6517376535425E-10
(PID.TID 0000.0001) %MON dynstat_wvel_sd              =   1.0703146550457E-05
(PID.TID 0000.0001) %MON dynstat_wvel_del2            =   4.5024141941109E-08
(PID.TID 0000.0001) %MON dynstat_theta_max            =   1.2000000000000E+00
(PID.TID 0000.0001) %MON dynstat_theta_min            =  -1.0000000000000E+00
(PID.TID 0000.0001) %MON dynstat_theta_mean           =   5.6535852409334E-01
(PID.TID 0000.0001) %MON dynstat_theta_sd             =   8.4903233876948E-01
(PID.TID 0000.0001) %MON dynstat_theta_del2           =   1.0797837098120E-06
(PID.TID 0000.0001) %MON dynstat_salt_max             =   3.4700000000000E+01
(PID.TID 0000.0001) %MON dynstat_salt_min             =   3.4000000000000E+01
(PID.TID 0000.0001) %MON dynstat_salt_mean            =   3.4498057089732E+01
(PID.TID 0000.0001) %MON dynstat_salt_sd              =   2.7014702489229E-01
(PID.TID 0000.0001) %MON dynstat_salt_del2            =   4.1884193539406E-07
(PID.TID 0000.0001) %MON advcfl_uvel_max              =   8.2200510607207E-04
(PID.TID 0000.0001) %MON advcfl_vvel_max              =   7.4349962350406E-04
(PID.TID 0000.0001) %MON advcfl_wvel_max              =   1.5191697641430E-03
(PID.TID 0000.0001) %MON advcfl_W_hf_max              =   1.5191697641430E-03
(PID.TID 0000.0001) %MON pe_b_mean                    =  -6.8263980166052E-01
(PID.TID 0000.0001) %MON ke_max                       =   2.0827057498290E-05
(PID.TID 0000.0001) %MON ke_mean                      =   3.5718277342099E-08
(PID.TID 0000.0001) %MON ke_vol                       =   4.6182932071971E+12
(PID.TID 0000.0001) // =======================================================
(PID.TID 0000.0001) // End MONITOR dynamic field statistics
(PID.TID 0000.0001) // =======================================================
(PID.TID 0000.0001) // =======================================================
(PID.TID 0000.0001) // Begin OBCS MONITOR field statistics
(PID.TID 0000.0001) // =======================================================
(PID.TID 0000.0001) %MON obc_N_vVel_max               =  -6.5929264221875E-08
(PID.TID 0000.0001) %MON obc_N_vVel_min               =  -6.5929264221875E-08
(PID.TID 0000.0001) %MON obc_N_vVel_mean              =  -6.5929264221875E-08
(PID.TID 0000.0001) %MON obc_N_vVel_sd                =   1.1682163181673E-14
(PID.TID 0000.0001) %MON obc_N_vVel_Int               =  -4.3513314386437E+00
(PID.TID 0000.0001) // =======================================================
(PID.TID 0000.0001) // End OBCS MONITOR field statistics
(PID.TID 0000.0001) // =======================================================
 cg2d: Sum(rhs),rhsMax =   3.01126797184407E+00  4.53048695604801E+02
(PID.TID 0000.0001)      cg2d_init_res =   1.43526666358116E-06
(PID.TID 0000.0001)      cg2d_iters(min,last) =      -1      71
(PID.TID 0000.0001)      cg2d_last_res =   9.12470426925974E-12
(PID.TID 0000.0001) // =======================================================
(PID.TID 0000.0001) // Begin MONITOR dynamic field statistics
(PID.TID 0000.0001) // =======================================================
(PID.TID 0000.0001) %MON time_tsnumber                =                   656
(PID.TID 0000.0001) %MON time_secondsf                =   6.5600000000000E+04
(PID.TID 0000.0001) %MON dynstat_eta_max              =   5.7972929652623E+00
(PID.TID 0000.0001) %MON dynstat_eta_min              =  -1.4175236533544E+01
(PID.TID 0000.0001) %MON dynstat_eta_mean             =  -2.5263907902972E+00
(PID.TID 0000.0001) %MON dynstat_eta_sd               =   4.9417614152100E+00
(PID.TID 0000.0001) %MON dynstat_eta_del2             =   1.9058164889401E-01
(PID.TID 0000.0001) %MON dynstat_uvel_max             =   2.7425120757751E-03
(PID.TID 0000.0001) %MON dynstat_uvel_min             =  -8.2444715590952E-03
(PID.TID 0000.0001) %MON dynstat_uvel_mean            =  -1.3160157687991E-09
(PID.TID 0000.0001) %MON dynstat_uvel_sd              =   2.3071326848994E-04
(PID.TID 0000.0001) %MON dynstat_uvel_del2            =   4.0180583751059E-07
(PID.TID 0000.0001) %MON dynstat_vvel_max             =   7.4512584734736E-03
(PID.TID 0000.0001) %MON dynstat_vvel_min             =  -2.3370036156649E-03
(PID.TID 0000.0001) %MON dynstat_vvel_mean            =  -5.2891820282721E-08
(PID.TID 0000.0001) %MON dynstat_vvel_sd              =   1.3967433796256E-04
(PID.TID 0000.0001) %MON dynstat_vvel_del2            =   3.8567542528365E-07
(PID.TID 0000.0001) %MON dynstat_wvel_max             =   3.0491065332253E-04
(PID.TID 0000.0001) %MON dynstat_wvel_min             =  -2.9897641097981E-04
(PID.TID 0000.0001) %MON dynstat_wvel_mean            =   1.6497498900013E-10
(PID.TID 0000.0001) %MON dynstat_wvel_sd              =   1.0903999119621E-05
(PID.TID 0000.0001) %MON dynstat_wvel_del2            =   4.6261392160109E-08
(PID.TID 0000.0001) %MON dynstat_theta_max            =   1.2000000000000E+00
(PID.TID 0000.0001) %MON dynstat_theta_min            =  -1.0000000000000E+00
(PID.TID 0000.0001) %MON dynstat_theta_mean           =   5.6535823543472E-01
(PID.TID 0000.0001) %MON dynstat_theta_sd             =   8.4903224255149E-01
(PID.TID 0000.0001) %MON dynstat_theta_del2           =   1.0811356696459E-06
(PID.TID 0000.0001) %MON dynstat_salt_max             =   3.4700000000000E+01
(PID.TID 0000.0001) %MON dynstat_salt_min             =   3.4000000000000E+01
(PID.TID 0000.0001) %MON dynstat_salt_mean            =   3.4498056974979E+01
(PID.TID 0000.0001) %MON dynstat_salt_sd              =   2.7014699130247E-01
(PID.TID 0000.0001) %MON dynstat_salt_del2            =   4.1949182681004E-07
(PID.TID 0000.0001) %MON advcfl_uvel_max              =   8.2444715590952E-04
(PID.TID 0000.0001) %MON advcfl_vvel_max              =   7.4512584734736E-04
(PID.TID 0000.0001) %MON advcfl_wvel_max              =   1.5245532666126E-03
(PID.TID 0000.0001) %MON advcfl_W_hf_max              =   1.5245532666126E-03
(PID.TID 0000.0001) %MON pe_b_mean                    =  -6.8263906223841E-01
(PID.TID 0000.0001) %MON ke_max                       =   2.0949593405861E-05
(PID.TID 0000.0001) %MON ke_mean                      =   3.5868155281898E-08
(PID.TID 0000.0001) %MON ke_vol                       =   4.6182932229433E+12
(PID.TID 0000.0001) // =======================================================
(PID.TID 0000.0001) // End MONITOR dynamic field statistics
(PID.TID 0000.0001) // =======================================================
(PID.TID 0000.0001) // =======================================================
(PID.TID 0000.0001) // Begin OBCS MONITOR field statistics
(PID.TID 0000.0001) // =======================================================
(PID.TID 0000.0001) %MON obc_N_vVel_max               =  -6.5608372052895E-08
(PID.TID 0000.0001) %MON obc_N_vVel_min               =  -6.5608372052895E-08
(PID.TID 0000.0001) %MON obc_N_vVel_mean              =  -6.5608372052895E-08
(PID.TID 0000.0001) %MON obc_N_vVel_sd                =   7.0496976551426E-15
(PID.TID 0000.0001) %MON obc_N_vVel_Int               =  -4.3301525554910E+00
(PID.TID 0000.0001) // =======================================================
(PID.TID 0000.0001) // End OBCS MONITOR field statistics
(PID.TID 0000.0001) // =======================================================
 cg2d: Sum(rhs),rhsMax =   3.01126486975337E+00  4.53048685964509E+02
(PID.TID 0000.0001)      cg2d_init_res =   1.45100185904125E-06
(PID.TID 0000.0001)      cg2d_iters(min,last) =      -1      71
(PID.TID 0000.0001)      cg2d_last_res =   9.15362079433636E-12
(PID.TID 0000.0001) // =======================================================
(PID.TID 0000.0001) // Begin MONITOR dynamic field statistics
(PID.TID 0000.0001) // =======================================================
(PID.TID 0000.0001) %MON time_tsnumber                =                   657
(PID.TID 0000.0001) %MON time_secondsf                =   6.5700000000000E+04
(PID.TID 0000.0001) %MON dynstat_eta_max              =   5.7972957446724E+00
(PID.TID 0000.0001) %MON dynstat_eta_min              =  -1.4175231860070E+01
(PID.TID 0000.0001) %MON dynstat_eta_mean             =  -2.5263881339497E+00
(PID.TID 0000.0001) %MON dynstat_eta_sd               =   4.9417605904220E+00
(PID.TID 0000.0001) %MON dynstat_eta_del2             =   1.9058165376565E-01
(PID.TID 0000.0001) %MON dynstat_uvel_max             =   2.7471394429366E-03
(PID.TID 0000.0001) %MON dynstat_uvel_min             =  -8.2689512569774E-03
(PID.TID 0000.0001) %MON dynstat_uvel_mean            =  -1.3090518882949E-09
(PID.TID 0000.0001) %MON dynstat_uvel_sd              =   2.3119566531331E-04
(PID.TID 0000.0001) %MON dynstat_uvel_del2            =   4.0261971751933E-07
(PID.TID 0000.0001) %MON dynstat_vvel_max             =   7.4675456620725E-03
(PID.TID 0000.0001) %MON dynstat_vvel_min             =  -2.3442163033076E-03
(PID.TID 0000.0001) %MON dynstat_vvel_mean            =  -5.2623960070808E-08
(PID.TID 0000.0001) %MON dynstat_vvel_sd              =   1.3996379875592E-04
(PID.TID 0000.0001) %MON dynstat_vvel_del2            =   3.8678602683724E-07
(PID.TID 0000.0001) %MON dynstat_wvel_max             =   3.0598970024526E-04
(PID.TID 0000.0001) %MON dynstat_wvel_min             =  -2.9977711358055E-04
(PID.TID 0000.0001) %MON dynstat_wvel_mean            =   1.6470995301019E-10
(PID.TID 0000.0001) %MON dynstat_wvel_sd              =   1.1075311141973E-05
(PID.TID 0000.0001) %MON dynstat_wvel_del2            =   4.7356145184197E-08
(PID.TID 0000.0001) %MON dynstat_theta_max            =   1.2000000000000E+00
(PID.TID 0000.0001) %MON dynstat_theta_min            =  -1.0000000000000E+00
(PID.TID 0000.0001) %MON dynstat_theta_mean           =   5.6535794634113E-01
(PID.TID 0000.0001) %MON dynstat_theta_sd             =   8.4903214613760E-01
(PID.TID 0000.0001) %MON dynstat_theta_del2           =   1.0825897124829E-06
(PID.TID 0000.0001) %MON dynstat_salt_max             =   3.4700000000000E+01
(PID.TID 0000.0001) %MON dynstat_salt_min             =   3.4000000000000E+01
(PID.TID 0000.0001) %MON dynstat_salt_mean            =   3.4498056860060E+01
(PID.TID 0000.0001) %MON dynstat_salt_sd              =   2.7014695763303E-01
(PID.TID 0000.0001) %MON dynstat_salt_del2            =   4.2016896253088E-07
(PID.TID 0000.0001) %MON advcfl_uvel_max              =   8.2689512569774E-04
(PID.TID 0000.0001) %MON advcfl_vvel_max              =   7.4675456620725E-04
(PID.TID 0000.0001) %MON advcfl_wvel_max              =   1.5299485012263E-03
(PID.TID 0000.0001) %MON advcfl_W_hf_max              =   1.5299485012263E-03
(PID.TID 0000.0001) %MON pe_b_mean                    =  -6.8263832188097E-01
(PID.TID 0000.0001) %MON ke_max                       =   2.1072799628252E-05
(PID.TID 0000.0001) %MON ke_mean                      =   3.6017943477268E-08
(PID.TID 0000.0001) %MON ke_vol                       =   4.6182932387056E+12
(PID.TID 0000.0001) // =======================================================
(PID.TID 0000.0001) // End MONITOR dynamic field statistics
(PID.TID 0000.0001) // =======================================================
(PID.TID 0000.0001) // =======================================================
(PID.TID 0000.0001) // Begin OBCS MONITOR field statistics
(PID.TID 0000.0001) // =======================================================
(PID.TID 0000.0001) %MON obc_N_vVel_max               =  -6.5339794193485E-08
(PID.TID 0000.0001) %MON obc_N_vVel_min               =  -6.5339794193485E-08
(PID.TID 0000.0001) %MON obc_N_vVel_mean              =  -6.5339794193485E-08
(PID.TID 0000.0001) %MON obc_N_vVel_sd                =  -7.4152925090775E-29
(PID.TID 0000.0001) %MON obc_N_vVel_Int               =  -4.3124264167700E+00
(PID.TID 0000.0001) // =======================================================
(PID.TID 0000.0001) // End OBCS MONITOR field statistics
(PID.TID 0000.0001) // =======================================================
 cg2d: Sum(rhs),rhsMax =   3.01126176449411E+00  4.53048676291247E+02
(PID.TID 0000.0001)      cg2d_init_res =   1.46449709437713E-06
(PID.TID 0000.0001)      cg2d_iters(min,last) =      -1      71
(PID.TID 0000.0001)      cg2d_last_res =   9.18322956080560E-12
(PID.TID 0000.0001) // =======================================================
(PID.TID 0000.0001) // Begin MONITOR dynamic field statistics
(PID.TID 0000.0001) // =======================================================
(PID.TID 0000.0001) %MON time_tsnumber                =                   658
(PID.TID 0000.0001) %MON time_secondsf                =   6.5800000000000E+04
(PID.TID 0000.0001) %MON dynstat_eta_max              =   5.7972985210234E+00
(PID.TID 0000.0001) %MON dynstat_eta_min              =  -1.4175227193670E+01
(PID.TID 0000.0001) %MON dynstat_eta_mean             =  -2.5263854747602E+00
(PID.TID 0000.0001) %MON dynstat_eta_sd               =   4.9417597647612E+00
(PID.TID 0000.0001) %MON dynstat_eta_del2             =   1.9058165864662E-01
(PID.TID 0000.0001) %MON dynstat_uvel_max             =   2.7517736519229E-03
(PID.TID 0000.0001) %MON dynstat_uvel_min             =  -8.2934902662588E-03
(PID.TID 0000.0001) %MON dynstat_uvel_mean            =  -1.3016454078228E-09
(PID.TID 0000.0001) %MON dynstat_uvel_sd              =   2.3168010552532E-04
(PID.TID 0000.0001) %MON dynstat_uvel_del2            =   4.0343614642446E-07
(PID.TID 0000.0001) %MON dynstat_vvel_max             =   7.4838578466767E-03
(PID.TID 0000.0001) %MON dynstat_vvel_min             =  -2.3514394458966E-03
(PID.TID 0000.0001) %MON dynstat_vvel_mean            =  -5.2425761803379E-08
(PID.TID 0000.0001) %MON dynstat_vvel_sd              =   1.4024328071630E-04
(PID.TID 0000.0001) %MON dynstat_vvel_del2            =   3.8780514412074E-07
(PID.TID 0000.0001) %MON dynstat_wvel_max             =   3.0707109964900E-04
(PID.TID 0000.0001) %MON dynstat_wvel_min             =  -3.0057871430786E-04
(PID.TID 0000.0001) %MON dynstat_wvel_mean            =   1.6439315768443E-10
(PID.TID 0000.0001) %MON dynstat_wvel_sd              =   1.1206045500759E-05
(PID.TID 0000.0001) %MON dynstat_wvel_del2            =   4.8237578944284E-08
(PID.TID 0000.0001) %MON dynstat_theta_max            =   1.2000000000000E+00
(PID.TID 0000.0001) %MON dynstat_theta_min            =  -1.0000000000000E+00
(PID.TID 0000.0001) %MON dynstat_theta_mean           =   5.6535765679979E-01
(PID.TID 0000.0001) %MON dynstat_theta_sd             =   8.4903204953999E-01
(PID.TID 0000.0001) %MON dynstat_theta_del2           =   1.0841804576135E-06
(PID.TID 0000.0001) %MON dynstat_salt_max             =   3.4700000000000E+01
(PID.TID 0000.0001) %MON dynstat_salt_min             =   3.4000000000000E+01
(PID.TID 0000.0001) %MON dynstat_salt_mean            =   3.4498056744971E+01
(PID.TID 0000.0001) %MON dynstat_salt_sd              =   2.7014692388797E-01
(PID.TID 0000.0001) %MON dynstat_salt_del2            =   4.2088235364080E-07
(PID.TID 0000.0001) %MON advcfl_uvel_max              =   8.2934902662588E-04
(PID.TID 0000.0001) %MON advcfl_vvel_max              =   7.4838578466767E-04
(PID.TID 0000.0001) %MON advcfl_wvel_max              =   1.5353554982450E-03
(PID.TID 0000.0001) %MON advcfl_W_hf_max              =   1.5353554982450E-03
(PID.TID 0000.0001) %MON pe_b_mean                    =  -6.8263758056953E-01
(PID.TID 0000.0001) %MON ke_max                       =   2.1196679395573E-05
(PID.TID 0000.0001) %MON ke_mean                      =   3.6167108837395E-08
(PID.TID 0000.0001) %MON ke_vol                       =   4.6182932544843E+12
(PID.TID 0000.0001) // =======================================================
(PID.TID 0000.0001) // End MONITOR dynamic field statistics
(PID.TID 0000.0001) // =======================================================
(PID.TID 0000.0001) // =======================================================
(PID.TID 0000.0001) // Begin OBCS MONITOR field statistics
(PID.TID 0000.0001) // =======================================================
(PID.TID 0000.0001) %MON obc_N_vVel_max               =  -6.5131451988063E-08
(PID.TID 0000.0001) %MON obc_N_vVel_min               =  -6.5131451988064E-08
(PID.TID 0000.0001) %MON obc_N_vVel_mean              =  -6.5131451988064E-08
(PID.TID 0000.0001) %MON obc_N_vVel_sd                =  -3.0213372669965E-28
(PID.TID 0000.0001) %MON obc_N_vVel_Int               =  -4.2986758312122E+00
(PID.TID 0000.0001) // =======================================================
(PID.TID 0000.0001) // End OBCS MONITOR field statistics
(PID.TID 0000.0001) // =======================================================
 cg2d: Sum(rhs),rhsMax =   3.01125865595815E+00  4.53048666585877E+02
(PID.TID 0000.0001)      cg2d_init_res =   1.47493059517601E-06
(PID.TID 0000.0001)      cg2d_iters(min,last) =      -1      71
(PID.TID 0000.0001)      cg2d_last_res =   9.21236820618983E-12
(PID.TID 0000.0001) // =======================================================
(PID.TID 0000.0001) // Begin MONITOR dynamic field statistics
(PID.TID 0000.0001) // =======================================================
(PID.TID 0000.0001) %MON time_tsnumber                =                   659
(PID.TID 0000.0001) %MON time_secondsf                =   6.5900000000000E+04
(PID.TID 0000.0001) %MON dynstat_eta_max              =   5.7973012944111E+00
(PID.TID 0000.0001) %MON dynstat_eta_min              =  -1.4175222534074E+01
(PID.TID 0000.0001) %MON dynstat_eta_mean             =  -2.5263828126426E+00
(PID.TID 0000.0001) %MON dynstat_eta_sd               =   4.9417589381941E+00
(PID.TID 0000.0001) %MON dynstat_eta_del2             =   1.9058166353690E-01
(PID.TID 0000.0001) %MON dynstat_uvel_max             =   2.7564146633061E-03
(PID.TID 0000.0001) %MON dynstat_uvel_min             =  -8.3180886985899E-03
(PID.TID 0000.0001) %MON dynstat_uvel_mean            =  -1.2939256185436E-09
(PID.TID 0000.0001) %MON dynstat_uvel_sd              =   2.3216661711374E-04
(PID.TID 0000.0001) %MON dynstat_uvel_del2            =   4.0425518610647E-07
(PID.TID 0000.0001) %MON dynstat_vvel_max             =   7.5001950729452E-03
(PID.TID 0000.0001) %MON dynstat_vvel_min             =  -2.3586730655136E-03
(PID.TID 0000.0001) %MON dynstat_vvel_mean            =  -5.2301985084052E-08
(PID.TID 0000.0001) %MON dynstat_vvel_sd              =   1.4050988911951E-04
(PID.TID 0000.0001) %MON dynstat_vvel_del2            =   3.8871132501062E-07
(PID.TID 0000.0001) %MON dynstat_wvel_max             =   3.0815485758534E-04
(PID.TID 0000.0001) %MON dynstat_wvel_min             =  -3.0138121731508E-04
(PID.TID 0000.0001) %MON dynstat_wvel_mean            =   1.6404047002740E-10
(PID.TID 0000.0001) %MON dynstat_wvel_sd              =   1.1288279969121E-05
(PID.TID 0000.0001) %MON dynstat_wvel_del2            =   4.8852225298796E-08
(PID.TID 0000.0001) %MON dynstat_theta_max            =   1.2000000000000E+00
(PID.TID 0000.0001) %MON dynstat_theta_min            =  -1.0000000000000E+00
(PID.TID 0000.0001) %MON dynstat_theta_mean           =   5.6535736679977E-01
(PID.TID 0000.0001) %MON dynstat_theta_sd             =   8.4903195276745E-01
(PID.TID 0000.0001) %MON dynstat_theta_del2           =   1.0859331832859E-06
(PID.TID 0000.0001) %MON dynstat_salt_max             =   3.4700000000000E+01
(PID.TID 0000.0001) %MON dynstat_salt_min             =   3.4000000000000E+01
(PID.TID 0000.0001) %MON dynstat_salt_mean            =   3.4498056629707E+01
(PID.TID 0000.0001) %MON dynstat_salt_sd              =   2.7014689006997E-01
(PID.TID 0000.0001) %MON dynstat_salt_del2            =   4.2163863440486E-07
(PID.TID 0000.0001) %MON advcfl_uvel_max              =   8.3180886985899E-04
(PID.TID 0000.0001) %MON advcfl_vvel_max              =   7.5001950729452E-04
(PID.TID 0000.0001) %MON advcfl_wvel_max              =   1.5407742879267E-03
(PID.TID 0000.0001) %MON advcfl_W_hf_max              =   1.5407742879267E-03
(PID.TID 0000.0001) %MON pe_b_mean                    =  -6.8263683828412E-01
(PID.TID 0000.0001) %MON ke_max                       =   2.1321235949665E-05
(PID.TID 0000.0001) %MON ke_mean                      =   3.6315245557632E-08
(PID.TID 0000.0001) %MON ke_vol                       =   4.6182932702799E+12
(PID.TID 0000.0001) // =======================================================
(PID.TID 0000.0001) // End MONITOR dynamic field statistics
(PID.TID 0000.0001) // =======================================================
(PID.TID 0000.0001) // =======================================================
(PID.TID 0000.0001) // Begin OBCS MONITOR field statistics
(PID.TID 0000.0001) // =======================================================
(PID.TID 0000.0001) %MON obc_N_vVel_max               =  -6.4989130568593E-08
(PID.TID 0000.0001) %MON obc_N_vVel_min               =  -6.4989130568593E-08
(PID.TID 0000.0001) %MON obc_N_vVel_mean              =  -6.4989130568593E-08
(PID.TID 0000.0001) %MON obc_N_vVel_sd                =  -1.1911799668837E-28
(PID.TID 0000.0001) %MON obc_N_vVel_Int               =  -4.2892826175271E+00
(PID.TID 0000.0001) // =======================================================
(PID.TID 0000.0001) // End OBCS MONITOR field statistics
(PID.TID 0000.0001) // =======================================================
 cg2d: Sum(rhs),rhsMax =   3.01125554403011E+00  4.53048656849855E+02
(PID.TID 0000.0001)      cg2d_init_res =   1.48172504395128E-06
(PID.TID 0000.0001)      cg2d_iters(min,last) =      -1      71
(PID.TID 0000.0001)      cg2d_last_res =   9.24036299404670E-12
(PID.TID 0000.0001) // =======================================================
(PID.TID 0000.0001) // Begin MONITOR dynamic field statistics
(PID.TID 0000.0001) // =======================================================
(PID.TID 0000.0001) %MON time_tsnumber                =                   660
(PID.TID 0000.0001) %MON time_secondsf                =   6.6000000000000E+04
(PID.TID 0000.0001) %MON dynstat_eta_max              =   5.7973040649417E+00
(PID.TID 0000.0001) %MON dynstat_eta_min              =  -1.4175217880998E+01
(PID.TID 0000.0001) %MON dynstat_eta_mean             =  -2.5263801475084E+00
(PID.TID 0000.0001) %MON dynstat_eta_sd               =   4.9417581106896E+00
(PID.TID 0000.0001) %MON dynstat_eta_del2             =   1.9058166843656E-01
(PID.TID 0000.0001) %MON dynstat_uvel_max             =   2.7610624373633E-03
(PID.TID 0000.0001) %MON dynstat_uvel_min             =  -8.3427466654253E-03
(PID.TID 0000.0001) %MON dynstat_uvel_mean            =  -1.2860343598227E-09
(PID.TID 0000.0001) %MON dynstat_uvel_sd              =   2.3265522688476E-04
(PID.TID 0000.0001) %MON dynstat_uvel_del2            =   4.0507688258737E-07
(PID.TID 0000.0001) %MON dynstat_vvel_max             =   7.5165573865719E-03
(PID.TID 0000.0001) %MON dynstat_vvel_min             =  -2.3659171841599E-03
(PID.TID 0000.0001) %MON dynstat_vvel_mean            =  -5.2254837168374E-08
(PID.TID 0000.0001) %MON dynstat_vvel_sd              =   1.4076185707419E-04
(PID.TID 0000.0001) %MON dynstat_vvel_del2            =   3.8949184633489E-07
(PID.TID 0000.0001) %MON dynstat_wvel_max             =   3.0924098012983E-04
(PID.TID 0000.0001) %MON dynstat_wvel_min             =  -3.0218462681308E-04
(PID.TID 0000.0001) %MON dynstat_wvel_mean            =   1.6366865477947E-10
(PID.TID 0000.0001) %MON dynstat_wvel_sd              =   1.1317380828827E-05
(PID.TID 0000.0001) %MON dynstat_wvel_del2            =   4.9164639281654E-08
(PID.TID 0000.0001) %MON dynstat_theta_max            =   1.2000000000000E+00
(PID.TID 0000.0001) %MON dynstat_theta_min            =  -1.0000000000000E+00
(PID.TID 0000.0001) %MON dynstat_theta_mean           =   5.6535707633245E-01
(PID.TID 0000.0001) %MON dynstat_theta_sd             =   8.4903185582558E-01
(PID.TID 0000.0001) %MON dynstat_theta_del2           =   1.0878618906340E-06
(PID.TID 0000.0001) %MON dynstat_salt_max             =   3.4700000000000E+01
(PID.TID 0000.0001) %MON dynstat_salt_min             =   3.4000000000000E+01
(PID.TID 0000.0001) %MON dynstat_salt_mean            =   3.4498056514267E+01
(PID.TID 0000.0001) %MON dynstat_salt_sd              =   2.7014685618082E-01
(PID.TID 0000.0001) %MON dynstat_salt_del2            =   4.2244137240099E-07
(PID.TID 0000.0001) %MON advcfl_uvel_max              =   8.3427466654253E-04
(PID.TID 0000.0001) %MON advcfl_vvel_max              =   7.5165573865719E-04
(PID.TID 0000.0001) %MON advcfl_wvel_max              =   1.5462049006491E-03
(PID.TID 0000.0001) %MON advcfl_W_hf_max              =   1.5462049006491E-03
(PID.TID 0000.0001) %MON pe_b_mean                    =  -6.8263609500475E-01
(PID.TID 0000.0001) %MON ke_max                       =   2.1446472544369E-05
(PID.TID 0000.0001) %MON ke_mean                      =   3.6462103723421E-08
(PID.TID 0000.0001) %MON ke_vol                       =   4.6182932860929E+12
(PID.TID 0000.0001) // =======================================================
(PID.TID 0000.0001) // End MONITOR dynamic field statistics
(PID.TID 0000.0001) // =======================================================
(PID.TID 0000.0001) // =======================================================
(PID.TID 0000.0001) // Begin OBCS MONITOR field statistics
(PID.TID 0000.0001) // =======================================================
(PID.TID 0000.0001) %MON obc_N_vVel_max               =  -6.4916334834682E-08
(PID.TID 0000.0001) %MON obc_N_vVel_min               =  -6.4916334834683E-08
(PID.TID 0000.0001) %MON obc_N_vVel_mean              =  -6.4916334834683E-08
(PID.TID 0000.0001) %MON obc_N_vVel_sd                =  -6.9419759659449E-29
(PID.TID 0000.0001) %MON obc_N_vVel_Int               =  -4.2844780990891E+00
(PID.TID 0000.0001) // =======================================================
(PID.TID 0000.0001) // End OBCS MONITOR field statistics
(PID.TID 0000.0001) // =======================================================
 cg2d: Sum(rhs),rhsMax =   3.01125242858941E+00  4.53048647085248E+02
(PID.TID 0000.0001)      cg2d_init_res =   1.48452539876417E-06
(PID.TID 0000.0001)      cg2d_iters(min,last) =      -1      71
(PID.TID 0000.0001)      cg2d_last_res =   9.26565036927189E-12
(PID.TID 0000.0001) // =======================================================
(PID.TID 0000.0001) // Begin MONITOR dynamic field statistics
(PID.TID 0000.0001) // =======================================================
(PID.TID 0000.0001) %MON time_tsnumber                =                   661
(PID.TID 0000.0001) %MON time_secondsf                =   6.6100000000000E+04
(PID.TID 0000.0001) %MON dynstat_eta_max              =   5.7973068327236E+00
(PID.TID 0000.0001) %MON dynstat_eta_min              =  -1.4175213234158E+01
(PID.TID 0000.0001) %MON dynstat_eta_mean             =  -2.5263774792678E+00
(PID.TID 0000.0001) %MON dynstat_eta_sd               =   4.9417572822172E+00
(PID.TID 0000.0001) %MON dynstat_eta_del2             =   1.9058167334550E-01
(PID.TID 0000.0001) %MON dynstat_uvel_max             =   2.7657169340713E-03
(PID.TID 0000.0001) %MON dynstat_uvel_min             =  -8.3674642778195E-03
(PID.TID 0000.0001) %MON dynstat_uvel_mean            =  -1.2781253711911E-09
(PID.TID 0000.0001) %MON dynstat_uvel_sd              =   2.3314596017590E-04
(PID.TID 0000.0001) %MON dynstat_uvel_del2            =   4.0590126370582E-07
(PID.TID 0000.0001) %MON dynstat_vvel_max             =   7.5329448331836E-03
(PID.TID 0000.0001) %MON dynstat_vvel_min             =  -2.3731718238116E-03
(PID.TID 0000.0001) %MON dynstat_vvel_mean            =  -5.2283918123951E-08
(PID.TID 0000.0001) %MON dynstat_vvel_sd              =   1.4099865198624E-04
(PID.TID 0000.0001) %MON dynstat_vvel_del2            =   3.9014351679746E-07
(PID.TID 0000.0001) %MON dynstat_wvel_max             =   3.1032947337176E-04
(PID.TID 0000.0001) %MON dynstat_wvel_min             =  -3.0298894710008E-04
(PID.TID 0000.0001) %MON dynstat_wvel_mean            =   1.6329526832253E-10
(PID.TID 0000.0001) %MON dynstat_wvel_sd              =   1.1292062453297E-05
(PID.TID 0000.0001) %MON dynstat_wvel_del2            =   4.9157574459687E-08
(PID.TID 0000.0001) %MON dynstat_theta_max            =   1.2000000000000E+00
(PID.TID 0000.0001) %MON dynstat_theta_min            =  -1.0000000000000E+00
(PID.TID 0000.0001) %MON dynstat_theta_mean           =   5.6535678539159E-01
(PID.TID 0000.0001) %MON dynstat_theta_sd             =   8.4903175871774E-01
(PID.TID 0000.0001) %MON dynstat_theta_del2           =   1.0899682494829E-06
(PID.TID 0000.0001) %MON dynstat_salt_max             =   3.4700000000000E+01
(PID.TID 0000.0001) %MON dynstat_salt_min             =   3.4000000000000E+01
(PID.TID 0000.0001) %MON dynstat_salt_mean            =   3.4498056398647E+01
(PID.TID 0000.0001) %MON dynstat_salt_sd              =   2.7014682222143E-01
(PID.TID 0000.0001) %MON dynstat_salt_del2            =   4.2329098798749E-07
(PID.TID 0000.0001) %MON advcfl_uvel_max              =   8.3674642778195E-04
(PID.TID 0000.0001) %MON advcfl_vvel_max              =   7.5329448331836E-04
(PID.TID 0000.0001) %MON advcfl_wvel_max              =   1.5516473668588E-03
(PID.TID 0000.0001) %MON advcfl_W_hf_max              =   1.5516473668588E-03
(PID.TID 0000.0001) %MON pe_b_mean                    =  -6.8263535071179E-01
(PID.TID 0000.0001) %MON ke_max                       =   2.1572392444431E-05
(PID.TID 0000.0001) %MON ke_mean                      =   3.6607605989674E-08
(PID.TID 0000.0001) %MON ke_vol                       =   4.6182933019238E+12
(PID.TID 0000.0001) // =======================================================
(PID.TID 0000.0001) // End MONITOR dynamic field statistics
(PID.TID 0000.0001) // =======================================================
(PID.TID 0000.0001) // =======================================================
(PID.TID 0000.0001) // Begin OBCS MONITOR field statistics
(PID.TID 0000.0001) // =======================================================
(PID.TID 0000.0001) %MON obc_N_vVel_max               =  -6.4914211938450E-08
(PID.TID 0000.0001) %MON obc_N_vVel_min               =  -6.4914211938450E-08
(PID.TID 0000.0001) %MON obc_N_vVel_mean              =  -6.4914211938450E-08
(PID.TID 0000.0001) %MON obc_N_vVel_sd                =   7.3241068776356E-15
(PID.TID 0000.0001) %MON obc_N_vVel_Int               =  -4.2843379879377E+00
(PID.TID 0000.0001) // =======================================================
(PID.TID 0000.0001) // End OBCS MONITOR field statistics
(PID.TID 0000.0001) // =======================================================
 cg2d: Sum(rhs),rhsMax =   3.01124930951429E+00  4.53048637294511E+02
(PID.TID 0000.0001)      cg2d_init_res =   1.48328122599976E-06
(PID.TID 0000.0001)      cg2d_iters(min,last) =      -1      71
(PID.TID 0000.0001)      cg2d_last_res =   9.28820297771632E-12
(PID.TID 0000.0001) // =======================================================
(PID.TID 0000.0001) // Begin MONITOR dynamic field statistics
(PID.TID 0000.0001) // =======================================================
(PID.TID 0000.0001) %MON time_tsnumber                =                   662
(PID.TID 0000.0001) %MON time_secondsf                =   6.6200000000000E+04
(PID.TID 0000.0001) %MON dynstat_eta_max              =   5.7973095978636E+00
(PID.TID 0000.0001) %MON dynstat_eta_min              =  -1.4175208593280E+01
(PID.TID 0000.0001) %MON dynstat_eta_mean             =  -2.5263748078324E+00
(PID.TID 0000.0001) %MON dynstat_eta_sd               =   4.9417564527500E+00
(PID.TID 0000.0001) %MON dynstat_eta_del2             =   1.9058167826371E-01
(PID.TID 0000.0001) %MON dynstat_uvel_max             =   2.7703781131638E-03
(PID.TID 0000.0001) %MON dynstat_uvel_min             =  -8.3922416467068E-03
(PID.TID 0000.0001) %MON dynstat_uvel_mean            =  -1.2703393202697E-09
(PID.TID 0000.0001) %MON dynstat_uvel_sd              =   2.3363884065084E-04
(PID.TID 0000.0001) %MON dynstat_uvel_del2            =   4.0672834061542E-07
(PID.TID 0000.0001) %MON dynstat_vvel_max             =   7.5493574584302E-03
(PID.TID 0000.0001) %MON dynstat_vvel_min             =  -2.3804370063516E-03
(PID.TID 0000.0001) %MON dynstat_vvel_mean            =  -5.2386261027088E-08
(PID.TID 0000.0001) %MON dynstat_vvel_sd              =   1.4122099006773E-04
(PID.TID 0000.0001) %MON dynstat_vvel_del2            =   3.9067279605488E-07
(PID.TID 0000.0001) %MON dynstat_wvel_max             =   3.1142034340462E-04
(PID.TID 0000.0001) %MON dynstat_wvel_min             =  -3.0379418250708E-04
(PID.TID 0000.0001) %MON dynstat_wvel_mean            =   1.6293777739960E-10
(PID.TID 0000.0001) %MON dynstat_wvel_sd              =   1.1214364512721E-05
(PID.TID 0000.0001) %MON dynstat_wvel_del2            =   4.8831933730999E-08
(PID.TID 0000.0001) %MON dynstat_theta_max            =   1.2000000000000E+00
(PID.TID 0000.0001) %MON dynstat_theta_min            =  -1.0000000000000E+00
(PID.TID 0000.0001) %MON dynstat_theta_mean           =   5.6535649397332E-01
(PID.TID 0000.0001) %MON dynstat_theta_sd             =   8.4903166145371E-01
(PID.TID 0000.0001) %MON dynstat_theta_del2           =   1.0922414067361E-06
(PID.TID 0000.0001) %MON dynstat_salt_max             =   3.4700000000000E+01
(PID.TID 0000.0001) %MON dynstat_salt_min             =   3.4000000000000E+01
(PID.TID 0000.0001) %MON dynstat_salt_mean            =   3.4498056282848E+01
(PID.TID 0000.0001) %MON dynstat_salt_sd              =   2.7014678819479E-01
(PID.TID 0000.0001) %MON dynstat_salt_del2            =   4.2418464311747E-07
(PID.TID 0000.0001) %MON advcfl_uvel_max              =   8.3922416467068E-04
(PID.TID 0000.0001) %MON advcfl_vvel_max              =   7.5493574584302E-04
(PID.TID 0000.0001) %MON advcfl_wvel_max              =   1.5571017170231E-03
(PID.TID 0000.0001) %MON advcfl_W_hf_max              =   1.5571017170231E-03
(PID.TID 0000.0001) %MON pe_b_mean                    =  -6.8263460538634E-01
(PID.TID 0000.0001) %MON ke_max                       =   2.1698998927241E-05
(PID.TID 0000.0001) %MON ke_mean                      =   3.6751851210764E-08
(PID.TID 0000.0001) %MON ke_vol                       =   4.6182933177731E+12
(PID.TID 0000.0001) // =======================================================
(PID.TID 0000.0001) // End MONITOR dynamic field statistics
(PID.TID 0000.0001) // =======================================================
(PID.TID 0000.0001) // =======================================================
(PID.TID 0000.0001) // Begin OBCS MONITOR field statistics
(PID.TID 0000.0001) // =======================================================
(PID.TID 0000.0001) %MON obc_N_vVel_max               =  -6.4981552635831E-08
(PID.TID 0000.0001) %MON obc_N_vVel_min               =  -6.4981552635832E-08
(PID.TID 0000.0001) %MON obc_N_vVel_mean              =  -6.4981552635832E-08
(PID.TID 0000.0001) %MON obc_N_vVel_sd                =  -4.9698237028924E-29
(PID.TID 0000.0001) %MON obc_N_vVel_Int               =  -4.2887824739649E+00
(PID.TID 0000.0001) // =======================================================
(PID.TID 0000.0001) // End OBCS MONITOR field statistics
(PID.TID 0000.0001) // =======================================================
 cg2d: Sum(rhs),rhsMax =   3.01124618668425E+00  4.53048627480615E+02
(PID.TID 0000.0001)      cg2d_init_res =   1.47820207531906E-06
(PID.TID 0000.0001)      cg2d_iters(min,last) =      -1      71
(PID.TID 0000.0001)      cg2d_last_res =   9.30793372655728E-12
(PID.TID 0000.0001) // =======================================================
(PID.TID 0000.0001) // Begin MONITOR dynamic field statistics
(PID.TID 0000.0001) // =======================================================
(PID.TID 0000.0001) %MON time_tsnumber                =                   663
(PID.TID 0000.0001) %MON time_secondsf                =   6.6300000000000E+04
(PID.TID 0000.0001) %MON dynstat_eta_max              =   5.7973123604709E+00
(PID.TID 0000.0001) %MON dynstat_eta_min              =  -1.4175203958092E+01
(PID.TID 0000.0001) %MON dynstat_eta_mean             =  -2.5263721331177E+00
(PID.TID 0000.0001) %MON dynstat_eta_sd               =   4.9417556222643E+00
(PID.TID 0000.0001) %MON dynstat_eta_del2             =   1.9058168319120E-01
(PID.TID 0000.0001) %MON dynstat_uvel_max             =   2.7750459340634E-03
(PID.TID 0000.0001) %MON dynstat_uvel_min             =  -8.4170788826290E-03
(PID.TID 0000.0001) %MON dynstat_uvel_mean            =  -1.2627992400937E-09
(PID.TID 0000.0001) %MON dynstat_uvel_sd              =   2.3413389023753E-04
(PID.TID 0000.0001) %MON dynstat_uvel_del2            =   4.0755810976850E-07
(PID.TID 0000.0001) %MON dynstat_vvel_max             =   7.5657953077810E-03
(PID.TID 0000.0001) %MON dynstat_vvel_min             =  -2.3877127536949E-03
(PID.TID 0000.0001) %MON dynstat_vvel_mean            =  -5.2556441833685E-08
(PID.TID 0000.0001) %MON dynstat_vvel_sd              =   1.4143075938250E-04
(PID.TID 0000.0001) %MON dynstat_vvel_del2            =   3.9109522895422E-07
(PID.TID 0000.0001) %MON dynstat_wvel_max             =   3.1251359635379E-04
(PID.TID 0000.0001) %MON dynstat_wvel_min             =  -3.0460033744166E-04
(PID.TID 0000.0001) %MON dynstat_wvel_mean            =   1.6261305686995E-10
(PID.TID 0000.0001) %MON dynstat_wvel_sd              =   1.1089555703284E-05
(PID.TID 0000.0001) %MON dynstat_wvel_del2            =   4.8206606683122E-08
(PID.TID 0000.0001) %MON dynstat_theta_max            =   1.2000000000000E+00
(PID.TID 0000.0001) %MON dynstat_theta_min            =  -1.0000000000000E+00
(PID.TID 0000.0001) %MON dynstat_theta_mean           =   5.6535620207625E-01
(PID.TID 0000.0001) %MON dynstat_theta_sd             =   8.4903156404525E-01
(PID.TID 0000.0001) %MON dynstat_theta_del2           =   1.0946588526416E-06
(PID.TID 0000.0001) %MON dynstat_salt_max             =   3.4700000000000E+01
(PID.TID 0000.0001) %MON dynstat_salt_min             =   3.4000000000000E+01
(PID.TID 0000.0001) %MON dynstat_salt_mean            =   3.4498056166867E+01
(PID.TID 0000.0001) %MON dynstat_salt_sd              =   2.7014675410484E-01
(PID.TID 0000.0001) %MON dynstat_salt_del2            =   4.2511647004501E-07
(PID.TID 0000.0001) %MON advcfl_uvel_max              =   8.4170788826290E-04
(PID.TID 0000.0001) %MON advcfl_vvel_max              =   7.5657953077810E-04
(PID.TID 0000.0001) %MON advcfl_wvel_max              =   1.5625679817689E-03
(PID.TID 0000.0001) %MON advcfl_W_hf_max              =   1.5625679817689E-03
(PID.TID 0000.0001) %MON pe_b_mean                    =  -6.8263385901081E-01
(PID.TID 0000.0001) %MON ke_max                       =   2.1826295281302E-05
(PID.TID 0000.0001) %MON ke_mean                      =   3.6895104916266E-08
(PID.TID 0000.0001) %MON ke_vol                       =   4.6182933336415E+12
(PID.TID 0000.0001) // =======================================================
(PID.TID 0000.0001) // End MONITOR dynamic field statistics
(PID.TID 0000.0001) // =======================================================
(PID.TID 0000.0001) // =======================================================
(PID.TID 0000.0001) // Begin OBCS MONITOR field statistics
(PID.TID 0000.0001) // =======================================================
(PID.TID 0000.0001) %MON obc_N_vVel_max               =  -6.5114836657246E-08
(PID.TID 0000.0001) %MON obc_N_vVel_min               =  -6.5114836657247E-08
(PID.TID 0000.0001) %MON obc_N_vVel_mean              =  -6.5114836657246E-08
(PID.TID 0000.0001) %MON obc_N_vVel_sd                =   1.1443378446363E-14
(PID.TID 0000.0001) %MON obc_N_vVel_Int               =  -4.2975792193782E+00
(PID.TID 0000.0001) // =======================================================
(PID.TID 0000.0001) // End OBCS MONITOR field statistics
(PID.TID 0000.0001) // =======================================================
 cg2d: Sum(rhs),rhsMax =   3.01124305998315E+00  4.53048617646875E+02
(PID.TID 0000.0001)      cg2d_init_res =   1.46975557184737E-06
(PID.TID 0000.0001)      cg2d_iters(min,last) =      -1      71
(PID.TID 0000.0001)      cg2d_last_res =   9.32508993509779E-12
(PID.TID 0000.0001) // =======================================================
(PID.TID 0000.0001) // Begin MONITOR dynamic field statistics
(PID.TID 0000.0001) // =======================================================
(PID.TID 0000.0001) %MON time_tsnumber                =                   664
(PID.TID 0000.0001) %MON time_secondsf                =   6.6400000000000E+04
(PID.TID 0000.0001) %MON dynstat_eta_max              =   5.7973151206454E+00
(PID.TID 0000.0001) %MON dynstat_eta_min              =  -1.4175199328341E+01
(PID.TID 0000.0001) %MON dynstat_eta_mean             =  -2.5263694550446E+00
(PID.TID 0000.0001) %MON dynstat_eta_sd               =   4.9417547907407E+00
(PID.TID 0000.0001) %MON dynstat_eta_del2             =   1.9058168812799E-01
(PID.TID 0000.0001) %MON dynstat_uvel_max             =   2.7797203559441E-03
(PID.TID 0000.0001) %MON dynstat_uvel_min             =  -8.4419760958738E-03
(PID.TID 0000.0001) %MON dynstat_uvel_mean            =  -1.2556156994431E-09
(PID.TID 0000.0001) %MON dynstat_uvel_sd              =   2.3463112918930E-04
(PID.TID 0000.0001) %MON dynstat_uvel_del2            =   4.0839055605844E-07
(PID.TID 0000.0001) %MON dynstat_vvel_max             =   7.5822584267715E-03
(PID.TID 0000.0001) %MON dynstat_vvel_min             =  -2.3949990876755E-03
(PID.TID 0000.0001) %MON dynstat_vvel_mean            =  -5.2786783011095E-08
(PID.TID 0000.0001) %MON dynstat_vvel_sd              =   1.4163085817954E-04
(PID.TID 0000.0001) %MON dynstat_vvel_del2            =   3.9143423362874E-07
(PID.TID 0000.0001) %MON dynstat_wvel_max             =   3.1360923836150E-04
(PID.TID 0000.0001) %MON dynstat_wvel_min             =  -3.0540741635726E-04
(PID.TID 0000.0001) %MON dynstat_wvel_mean            =   1.6233695874433E-10
(PID.TID 0000.0001) %MON dynstat_wvel_sd              =   1.0925952047486E-05
(PID.TID 0000.0001) %MON dynstat_wvel_del2            =   4.7318181116507E-08
(PID.TID 0000.0001) %MON dynstat_theta_max            =   1.2000000000000E+00
(PID.TID 0000.0001) %MON dynstat_theta_min            =  -1.0000000000000E+00
(PID.TID 0000.0001) %MON dynstat_theta_mean           =   5.6535590970137E-01
(PID.TID 0000.0001) %MON dynstat_theta_sd             =   8.4903146650268E-01
(PID.TID 0000.0001) %MON dynstat_theta_del2           =   1.0971879835117E-06
(PID.TID 0000.0001) %MON dynstat_salt_max             =   3.4700000000000E+01
(PID.TID 0000.0001) %MON dynstat_salt_min             =   3.4000000000000E+01
(PID.TID 0000.0001) %MON dynstat_salt_mean            =   3.4498056050706E+01
(PID.TID 0000.0001) %MON dynstat_salt_sd              =   2.7014671995469E-01
(PID.TID 0000.0001) %MON dynstat_salt_del2            =   4.2607801615789E-07
(PID.TID 0000.0001) %MON advcfl_uvel_max              =   8.4419760958738E-04
(PID.TID 0000.0001) %MON advcfl_vvel_max              =   7.5822584267715E-04
(PID.TID 0000.0001) %MON advcfl_wvel_max              =   1.5680461918075E-03
(PID.TID 0000.0001) %MON advcfl_W_hf_max              =   1.5680461918075E-03
(PID.TID 0000.0001) %MON pe_b_mean                    =  -6.8263311156920E-01
(PID.TID 0000.0001) %MON ke_max                       =   2.1954284806774E-05
(PID.TID 0000.0001) %MON ke_mean                      =   3.7037777483635E-08
(PID.TID 0000.0001) %MON ke_vol                       =   4.6182933495293E+12
(PID.TID 0000.0001) // =======================================================
(PID.TID 0000.0001) // End MONITOR dynamic field statistics
(PID.TID 0000.0001) // =======================================================
(PID.TID 0000.0001) // =======================================================
(PID.TID 0000.0001) // Begin OBCS MONITOR field statistics
(PID.TID 0000.0001) // =======================================================
(PID.TID 0000.0001) %MON obc_N_vVel_max               =  -6.5308378770190E-08
(PID.TID 0000.0001) %MON obc_N_vVel_min               =  -6.5308378770190E-08
(PID.TID 0000.0001) %MON obc_N_vVel_mean              =  -6.5308378770190E-08
(PID.TID 0000.0001) %MON obc_N_vVel_sd                =  -1.2464002302492E-28
(PID.TID 0000.0001) %MON obc_N_vVel_Int               =  -4.3103529988326E+00
(PID.TID 0000.0001) // =======================================================
(PID.TID 0000.0001) // End OBCS MONITOR field statistics
(PID.TID 0000.0001) // =======================================================
 cg2d: Sum(rhs),rhsMax =   3.01123992930042E+00  4.53048607796933E+02
(PID.TID 0000.0001)      cg2d_init_res =   1.45863360198219E-06
(PID.TID 0000.0001)      cg2d_iters(min,last) =      -1      71
(PID.TID 0000.0001)      cg2d_last_res =   9.34022810750100E-12
(PID.TID 0000.0001) // =======================================================
(PID.TID 0000.0001) // Begin MONITOR dynamic field statistics
(PID.TID 0000.0001) // =======================================================
(PID.TID 0000.0001) %MON time_tsnumber                =                   665
(PID.TID 0000.0001) %MON time_secondsf                =   6.6500000000000E+04
(PID.TID 0000.0001) %MON dynstat_eta_max              =   5.7973178784672E+00
(PID.TID 0000.0001) %MON dynstat_eta_min              =  -1.4175194703809E+01
(PID.TID 0000.0001) %MON dynstat_eta_mean             =  -2.5263667735409E+00
(PID.TID 0000.0001) %MON dynstat_eta_sd               =   4.9417539581650E+00
(PID.TID 0000.0001) %MON dynstat_eta_del2             =   1.9058169307411E-01
(PID.TID 0000.0001) %MON dynstat_uvel_max             =   2.7844013376672E-03
(PID.TID 0000.0001) %MON dynstat_uvel_min             =  -8.4669333962477E-03
(PID.TID 0000.0001) %MON dynstat_uvel_mean            =  -1.2488929389547E-09
(PID.TID 0000.0001) %MON dynstat_uvel_sd              =   2.3513057624077E-04
(PID.TID 0000.0001) %MON dynstat_uvel_del2            =   4.0922565649118E-07
(PID.TID 0000.0001) %MON dynstat_vvel_max             =   7.5987468606440E-03
(PID.TID 0000.0001) %MON dynstat_vvel_min             =  -2.4022960301888E-03
(PID.TID 0000.0001) %MON dynstat_vvel_mean            =  -5.3067637628907E-08
(PID.TID 0000.0001) %MON dynstat_vvel_sd              =   1.4182496126644E-04
(PID.TID 0000.0001) %MON dynstat_vvel_del2            =   3.9171932409333E-07
(PID.TID 0000.0001) %MON dynstat_wvel_max             =   3.1470727556654E-04
(PID.TID 0000.0001) %MON dynstat_wvel_min             =  -3.0621542376773E-04
(PID.TID 0000.0001) %MON dynstat_wvel_mean            =   1.6212351091852E-10
(PID.TID 0000.0001) %MON dynstat_wvel_sd              =   1.0734618620427E-05
(PID.TID 0000.0001) %MON dynstat_wvel_del2            =   4.6220400470422E-08
(PID.TID 0000.0001) %MON dynstat_theta_max            =   1.2000000000000E+00
(PID.TID 0000.0001) %MON dynstat_theta_min            =  -1.0000000000000E+00
(PID.TID 0000.0001) %MON dynstat_theta_mean           =   5.6535561685184E-01
(PID.TID 0000.0001) %MON dynstat_theta_sd             =   8.4903136883061E-01
(PID.TID 0000.0001) %MON dynstat_theta_del2           =   1.0997890650738E-06
(PID.TID 0000.0001) %MON dynstat_salt_max             =   3.4700000000000E+01
(PID.TID 0000.0001) %MON dynstat_salt_min             =   3.4000000000000E+01
(PID.TID 0000.0001) %MON dynstat_salt_mean            =   3.4498055934364E+01
(PID.TID 0000.0001) %MON dynstat_salt_sd              =   2.7014668574564E-01
(PID.TID 0000.0001) %MON dynstat_salt_del2            =   4.2705888526788E-07
(PID.TID 0000.0001) %MON advcfl_uvel_max              =   8.4669333962477E-04
(PID.TID 0000.0001) %MON advcfl_vvel_max              =   7.5987468606440E-04
(PID.TID 0000.0001) %MON advcfl_wvel_max              =   1.5735363778327E-03
(PID.TID 0000.0001) %MON advcfl_W_hf_max              =   1.5735363778327E-03
(PID.TID 0000.0001) %MON pe_b_mean                    =  -6.8263236304727E-01
(PID.TID 0000.0001) %MON ke_max                       =   2.2082970814529E-05
(PID.TID 0000.0001) %MON ke_mean                      =   3.7180391789411E-08
(PID.TID 0000.0001) %MON ke_vol                       =   4.6182933654370E+12
(PID.TID 0000.0001) // =======================================================
(PID.TID 0000.0001) // End MONITOR dynamic field statistics
(PID.TID 0000.0001) // =======================================================
(PID.TID 0000.0001) // =======================================================
(PID.TID 0000.0001) // Begin OBCS MONITOR field statistics
(PID.TID 0000.0001) // =======================================================
(PID.TID 0000.0001) %MON obc_N_vVel_max               =  -6.5554509585699E-08
(PID.TID 0000.0001) %MON obc_N_vVel_min               =  -6.5554509585700E-08
(PID.TID 0000.0001) %MON obc_N_vVel_mean              =  -6.5554509585699E-08
(PID.TID 0000.0001) %MON obc_N_vVel_sd                =   1.2306961192855E-14
(PID.TID 0000.0001) %MON obc_N_vVel_Int               =  -4.3265976326561E+00
(PID.TID 0000.0001) // =======================================================
(PID.TID 0000.0001) // End OBCS MONITOR field statistics
(PID.TID 0000.0001) // =======================================================
 cg2d: Sum(rhs),rhsMax =   3.01123679453905E+00  4.53048597934620E+02
(PID.TID 0000.0001)      cg2d_init_res =   1.44575843380457E-06
(PID.TID 0000.0001)      cg2d_iters(min,last) =      -1      71
(PID.TID 0000.0001)      cg2d_last_res =   9.35418730630344E-12
(PID.TID 0000.0001) // =======================================================
(PID.TID 0000.0001) // Begin MONITOR dynamic field statistics
(PID.TID 0000.0001) // =======================================================
(PID.TID 0000.0001) %MON time_tsnumber                =                   666
(PID.TID 0000.0001) %MON time_secondsf                =   6.6600000000000E+04
(PID.TID 0000.0001) %MON dynstat_eta_max              =   5.7973206340226E+00
(PID.TID 0000.0001) %MON dynstat_eta_min              =  -1.4175190084275E+01
(PID.TID 0000.0001) %MON dynstat_eta_mean             =  -2.5263640885464E+00
(PID.TID 0000.0001) %MON dynstat_eta_sd               =   4.9417531245264E+00
(PID.TID 0000.0001) %MON dynstat_eta_del2             =   1.9058169802959E-01
(PID.TID 0000.0001) %MON dynstat_uvel_max             =   2.7890888377939E-03
(PID.TID 0000.0001) %MON dynstat_uvel_min             =  -8.4919508933856E-03
(PID.TID 0000.0001) %MON dynstat_uvel_mean            =  -1.2427269066028E-09
(PID.TID 0000.0001) %MON dynstat_uvel_sd              =   2.3563224885046E-04
(PID.TID 0000.0001) %MON dynstat_uvel_del2            =   4.1006338461249E-07
(PID.TID 0000.0001) %MON dynstat_vvel_max             =   7.6152606543587E-03
(PID.TID 0000.0001) %MON dynstat_vvel_min             =  -2.4096036031800E-03
(PID.TID 0000.0001) %MON dynstat_vvel_mean            =  -5.3387741509810E-08
(PID.TID 0000.0001) %MON dynstat_vvel_sd              =   1.4201723204809E-04
(PID.TID 0000.0001) %MON dynstat_vvel_del2            =   3.9198388547721E-07
(PID.TID 0000.0001) %MON dynstat_wvel_max             =   3.1580771413938E-04
(PID.TID 0000.0001) %MON dynstat_wvel_min             =  -3.0702436424208E-04
(PID.TID 0000.0001) %MON dynstat_wvel_mean            =   1.6198458143302E-10
(PID.TID 0000.0001) %MON dynstat_wvel_sd              =   1.0528905485031E-05
(PID.TID 0000.0001) %MON dynstat_wvel_del2            =   4.4983091456031E-08
(PID.TID 0000.0001) %MON dynstat_theta_max            =   1.2000000000000E+00
(PID.TID 0000.0001) %MON dynstat_theta_min            =  -1.0000000000000E+00
(PID.TID 0000.0001) %MON dynstat_theta_mean           =   5.6535532353336E-01
(PID.TID 0000.0001) %MON dynstat_theta_sd             =   8.4903127102368E-01
(PID.TID 0000.0001) %MON dynstat_theta_del2           =   1.1024177234121E-06
(PID.TID 0000.0001) %MON dynstat_salt_max             =   3.4700000000000E+01
(PID.TID 0000.0001) %MON dynstat_salt_min             =   3.4000000000000E+01
(PID.TID 0000.0001) %MON dynstat_salt_mean            =   3.4498055817845E+01
(PID.TID 0000.0001) %MON dynstat_salt_sd              =   2.7014665147600E-01
(PID.TID 0000.0001) %MON dynstat_salt_del2            =   4.2804743774325E-07
(PID.TID 0000.0001) %MON advcfl_uvel_max              =   8.4919508933856E-04
(PID.TID 0000.0001) %MON advcfl_vvel_max              =   7.6152606543587E-04
(PID.TID 0000.0001) %MON advcfl_wvel_max              =   1.5790385706969E-03
(PID.TID 0000.0001) %MON advcfl_W_hf_max              =   1.5790385706969E-03
(PID.TID 0000.0001) %MON pe_b_mean                    =  -6.8263161343361E-01
(PID.TID 0000.0001) %MON ke_max                       =   2.2212356627363E-05
(PID.TID 0000.0001) %MON ke_mean                      =   3.7323542871552E-08
(PID.TID 0000.0001) %MON ke_vol                       =   4.6182933813652E+12
(PID.TID 0000.0001) // =======================================================
(PID.TID 0000.0001) // End MONITOR dynamic field statistics
(PID.TID 0000.0001) // =======================================================
(PID.TID 0000.0001) // =======================================================
(PID.TID 0000.0001) // Begin OBCS MONITOR field statistics
(PID.TID 0000.0001) // =======================================================
(PID.TID 0000.0001) %MON obc_N_vVel_max               =  -6.5843853342558E-08
(PID.TID 0000.0001) %MON obc_N_vVel_min               =  -6.5843853342560E-08
(PID.TID 0000.0001) %MON obc_N_vVel_mean              =  -6.5843853342560E-08
(PID.TID 0000.0001) %MON obc_N_vVel_sd                =  -3.3526588471893E-28
(PID.TID 0000.0001) %MON obc_N_vVel_Int               =  -4.3456943206090E+00
(PID.TID 0000.0001) // =======================================================
(PID.TID 0000.0001) // End OBCS MONITOR field statistics
(PID.TID 0000.0001) // =======================================================
 cg2d: Sum(rhs),rhsMax =   3.01123365561536E+00  4.53048588063930E+02
(PID.TID 0000.0001)      cg2d_init_res =   1.43217714881032E-06
(PID.TID 0000.0001)      cg2d_iters(min,last) =      -1      71
(PID.TID 0000.0001)      cg2d_last_res =   9.36770991655491E-12
(PID.TID 0000.0001) // =======================================================
(PID.TID 0000.0001) // Begin MONITOR dynamic field statistics
(PID.TID 0000.0001) // =======================================================
(PID.TID 0000.0001) %MON time_tsnumber                =                   667
(PID.TID 0000.0001) %MON time_secondsf                =   6.6700000000000E+04
(PID.TID 0000.0001) %MON dynstat_eta_max              =   5.7973233873550E+00
(PID.TID 0000.0001) %MON dynstat_eta_min              =  -1.4175185469569E+01
(PID.TID 0000.0001) %MON dynstat_eta_mean             =  -2.5263614000132E+00
(PID.TID 0000.0001) %MON dynstat_eta_sd               =   4.9417522898190E+00
(PID.TID 0000.0001) %MON dynstat_eta_del2             =   1.9058170299441E-01
(PID.TID 0000.0001) %MON dynstat_uvel_max             =   2.7937828146527E-03
(PID.TID 0000.0001) %MON dynstat_uvel_min             =  -8.5170286964065E-03
(PID.TID 0000.0001) %MON dynstat_uvel_mean            =  -1.2371934595121E-09
(PID.TID 0000.0001) %MON dynstat_uvel_sd              =   2.3613616349342E-04
(PID.TID 0000.0001) %MON dynstat_uvel_del2            =   4.1090371514240E-07
(PID.TID 0000.0001) %MON dynstat_vvel_max             =   7.6317998526512E-03
(PID.TID 0000.0001) %MON dynstat_vvel_min             =  -2.4169218286900E-03
(PID.TID 0000.0001) %MON dynstat_vvel_mean            =  -5.3734614151190E-08
(PID.TID 0000.0001) %MON dynstat_vvel_sd              =   1.4221200188782E-04
(PID.TID 0000.0001) %MON dynstat_vvel_del2            =   3.9226265623324E-07
(PID.TID 0000.0001) %MON dynstat_wvel_max             =   3.1691056024949E-04
(PID.TID 0000.0001) %MON dynstat_wvel_min             =  -3.0783424241176E-04
(PID.TID 0000.0001) %MON dynstat_wvel_mean            =   1.6192925760405E-10
(PID.TID 0000.0001) %MON dynstat_wvel_sd              =   1.0323758419470E-05
(PID.TID 0000.0001) %MON dynstat_wvel_del2            =   4.3690104432799E-08
(PID.TID 0000.0001) %MON dynstat_theta_max            =   1.2000000000000E+00
(PID.TID 0000.0001) %MON dynstat_theta_min            =  -1.0000000000000E+00
(PID.TID 0000.0001) %MON dynstat_theta_mean           =   5.6535502975382E-01
(PID.TID 0000.0001) %MON dynstat_theta_sd             =   8.4903117308306E-01
(PID.TID 0000.0001) %MON dynstat_theta_del2           =   1.1050282915438E-06
(PID.TID 0000.0001) %MON dynstat_salt_max             =   3.4700000000000E+01
(PID.TID 0000.0001) %MON dynstat_salt_min             =   3.4000000000000E+01
(PID.TID 0000.0001) %MON dynstat_salt_mean            =   3.4498055701150E+01
(PID.TID 0000.0001) %MON dynstat_salt_sd              =   2.7014661714615E-01
(PID.TID 0000.0001) %MON dynstat_salt_del2            =   4.2903183737729E-07
(PID.TID 0000.0001) %MON advcfl_uvel_max              =   8.5170286964065E-04
(PID.TID 0000.0001) %MON advcfl_vvel_max              =   7.6317998526512E-04
(PID.TID 0000.0001) %MON advcfl_wvel_max              =   1.5845528012474E-03
(PID.TID 0000.0001) %MON advcfl_W_hf_max              =   1.5845528012474E-03
(PID.TID 0000.0001) %MON pe_b_mean                    =  -6.8263086271958E-01
(PID.TID 0000.0001) %MON ke_max                       =   2.2342445578410E-05
(PID.TID 0000.0001) %MON ke_mean                      =   3.7467852718331E-08
(PID.TID 0000.0001) %MON ke_vol                       =   4.6182933973140E+12
(PID.TID 0000.0001) // =======================================================
(PID.TID 0000.0001) // End MONITOR dynamic field statistics
(PID.TID 0000.0001) // =======================================================
(PID.TID 0000.0001) // =======================================================
(PID.TID 0000.0001) // Begin OBCS MONITOR field statistics
(PID.TID 0000.0001) // =======================================================
(PID.TID 0000.0001) %MON obc_N_vVel_max               =  -6.6165650696962E-08
(PID.TID 0000.0001) %MON obc_N_vVel_min               =  -6.6165650696964E-08
(PID.TID 0000.0001) %MON obc_N_vVel_mean              =  -6.6165650696962E-08
(PID.TID 0000.0001) %MON obc_N_vVel_sd                =   1.9479273482636E-14
(PID.TID 0000.0001) %MON obc_N_vVel_Int               =  -4.3669329459995E+00
(PID.TID 0000.0001) // =======================================================
(PID.TID 0000.0001) // End OBCS MONITOR field statistics
(PID.TID 0000.0001) // =======================================================
 cg2d: Sum(rhs),rhsMax =   3.01123051246104E+00  4.53048578188872E+02
(PID.TID 0000.0001)      cg2d_init_res =   1.41903333351324E-06
(PID.TID 0000.0001)      cg2d_iters(min,last) =      -1      71
(PID.TID 0000.0001)      cg2d_last_res =   9.38145297514531E-12
(PID.TID 0000.0001) // =======================================================
(PID.TID 0000.0001) // Begin MONITOR dynamic field statistics
(PID.TID 0000.0001) // =======================================================
(PID.TID 0000.0001) %MON time_tsnumber                =                   668
(PID.TID 0000.0001) %MON time_secondsf                =   6.6800000000000E+04
(PID.TID 0000.0001) %MON dynstat_eta_max              =   5.7973261385140E+00
(PID.TID 0000.0001) %MON dynstat_eta_min              =  -1.4175180859541E+01
(PID.TID 0000.0001) %MON dynstat_eta_mean             =  -2.5263587079063E+00
(PID.TID 0000.0001) %MON dynstat_eta_sd               =   4.9417514540424E+00
(PID.TID 0000.0001) %MON dynstat_eta_del2             =   1.9058170796862E-01
(PID.TID 0000.0001) %MON dynstat_uvel_max             =   2.7984832262735E-03
(PID.TID 0000.0001) %MON dynstat_uvel_min             =  -8.5421669141263E-03
(PID.TID 0000.0001) %MON dynstat_uvel_mean            =  -1.2323469861218E-09
(PID.TID 0000.0001) %MON dynstat_uvel_sd              =   2.3664233594212E-04
(PID.TID 0000.0001) %MON dynstat_uvel_del2            =   4.1174662737224E-07
(PID.TID 0000.0001) %MON dynstat_vvel_max             =   7.6483644997851E-03
(PID.TID 0000.0001) %MON dynstat_vvel_min             =  -2.4242507289349E-03
(PID.TID 0000.0001) %MON dynstat_vvel_mean            =  -5.4094968771012E-08
(PID.TID 0000.0001) %MON dynstat_vvel_sd              =   1.4241344090870E-04
(PID.TID 0000.0001) %MON dynstat_vvel_del2            =   3.9258909973826E-07
(PID.TID 0000.0001) %MON dynstat_wvel_max             =   3.1801582008970E-04
(PID.TID 0000.0001) %MON dynstat_wvel_min             =  -3.0883455454333E-04
(PID.TID 0000.0001) %MON dynstat_wvel_mean            =   1.6196372449537E-10
(PID.TID 0000.0001) %MON dynstat_wvel_sd              =   1.0134752765569E-05
(PID.TID 0000.0001) %MON dynstat_wvel_del2            =   4.2435619063314E-08
(PID.TID 0000.0001) %MON dynstat_theta_max            =   1.2000000000000E+00
(PID.TID 0000.0001) %MON dynstat_theta_min            =  -1.0000000000000E+00
(PID.TID 0000.0001) %MON dynstat_theta_mean           =   5.6535473552311E-01
(PID.TID 0000.0001) %MON dynstat_theta_sd             =   8.4903107500922E-01
(PID.TID 0000.0001) %MON dynstat_theta_del2           =   1.1075770845481E-06
(PID.TID 0000.0001) %MON dynstat_salt_max             =   3.4700000000000E+01
(PID.TID 0000.0001) %MON dynstat_salt_min             =   3.4000000000000E+01
(PID.TID 0000.0001) %MON dynstat_salt_mean            =   3.4498055584282E+01
(PID.TID 0000.0001) %MON dynstat_salt_sd              =   2.7014658275618E-01
(PID.TID 0000.0001) %MON dynstat_salt_del2            =   4.3000063601865E-07
(PID.TID 0000.0001) %MON advcfl_uvel_max              =   8.5421669141263E-04
(PID.TID 0000.0001) %MON advcfl_vvel_max              =   7.6483644997851E-04
(PID.TID 0000.0001) %MON advcfl_wvel_max              =   1.5900791004485E-03
(PID.TID 0000.0001) %MON advcfl_W_hf_max              =   1.5900791004485E-03
(PID.TID 0000.0001) %MON pe_b_mean                    =  -6.8263011089939E-01
(PID.TID 0000.0001) %MON ke_max                       =   2.2473241011704E-05
(PID.TID 0000.0001) %MON ke_mean                      =   3.7613923630277E-08
(PID.TID 0000.0001) %MON ke_vol                       =   4.6182934132839E+12
(PID.TID 0000.0001) // =======================================================
(PID.TID 0000.0001) // End MONITOR dynamic field statistics
(PID.TID 0000.0001) // =======================================================
(PID.TID 0000.0001) // =======================================================
(PID.TID 0000.0001) // Begin OBCS MONITOR field statistics
(PID.TID 0000.0001) // =======================================================
(PID.TID 0000.0001) %MON obc_N_vVel_max               =  -6.6508160736175E-08
(PID.TID 0000.0001) %MON obc_N_vVel_min               =  -6.6508160736175E-08
(PID.TID 0000.0001) %MON obc_N_vVel_mean              =  -6.6508160736175E-08
(PID.TID 0000.0001) %MON obc_N_vVel_sd                =  -1.5698332013898E-28
(PID.TID 0000.0001) %MON obc_N_vVel_Int               =  -4.3895386085876E+00
(PID.TID 0000.0001) // =======================================================
(PID.TID 0000.0001) // End OBCS MONITOR field statistics
(PID.TID 0000.0001) // =======================================================
 cg2d: Sum(rhs),rhsMax =   3.01122736502317E+00  4.53048568313499E+02
(PID.TID 0000.0001)      cg2d_init_res =   1.40743620274019E-06
(PID.TID 0000.0001)      cg2d_iters(min,last) =      -1      71
(PID.TID 0000.0001)      cg2d_last_res =   9.39559486185691E-12
(PID.TID 0000.0001) // =======================================================
(PID.TID 0000.0001) // Begin MONITOR dynamic field statistics
(PID.TID 0000.0001) // =======================================================
(PID.TID 0000.0001) %MON time_tsnumber                =                   669
(PID.TID 0000.0001) %MON time_secondsf                =   6.6900000000000E+04
(PID.TID 0000.0001) %MON dynstat_eta_max              =   5.7973288875196E+00
(PID.TID 0000.0001) %MON dynstat_eta_min              =  -1.4175176254068E+01
(PID.TID 0000.0001) %MON dynstat_eta_mean             =  -2.5263560122040E+00
(PID.TID 0000.0001) %MON dynstat_eta_sd               =   4.9417506172006E+00
(PID.TID 0000.0001) %MON dynstat_eta_del2             =   1.9058171295227E-01
(PID.TID 0000.0001) %MON dynstat_uvel_max             =   2.8031900305105E-03
(PID.TID 0000.0001) %MON dynstat_uvel_min             =  -8.5673656548035E-03
(PID.TID 0000.0001) %MON dynstat_uvel_mean            =  -1.2282249197135E-09
(PID.TID 0000.0001) %MON dynstat_uvel_sd              =   2.3715078157515E-04
(PID.TID 0000.0001) %MON dynstat_uvel_del2            =   4.1259210792764E-07
(PID.TID 0000.0001) %MON dynstat_vvel_max             =   7.6649546394687E-03
(PID.TID 0000.0001) %MON dynstat_vvel_min             =  -2.4315903263368E-03
(PID.TID 0000.0001) %MON dynstat_vvel_mean            =  -5.4455162321249E-08
(PID.TID 0000.0001) %MON dynstat_vvel_sd              =   1.4262524507455E-04
(PID.TID 0000.0001) %MON dynstat_vvel_del2            =   3.9299286407327E-07
(PID.TID 0000.0001) %MON dynstat_wvel_max             =   3.1912349985445E-04
(PID.TID 0000.0001) %MON dynstat_wvel_min             =  -3.0986133176615E-04
(PID.TID 0000.0001) %MON dynstat_wvel_mean            =   1.6209139208836E-10
(PID.TID 0000.0001) %MON dynstat_wvel_sd              =   9.9768403238903E-06
(PID.TID 0000.0001) %MON dynstat_wvel_del2            =   4.1318093198374E-08
(PID.TID 0000.0001) %MON dynstat_theta_max            =   1.2000000000000E+00
(PID.TID 0000.0001) %MON dynstat_theta_min            =  -1.0000000000000E+00
(PID.TID 0000.0001) %MON dynstat_theta_mean           =   5.6535444085284E-01
(PID.TID 0000.0001) %MON dynstat_theta_sd             =   8.4903097679990E-01
(PID.TID 0000.0001) %MON dynstat_theta_del2           =   1.1100256800722E-06
(PID.TID 0000.0001) %MON dynstat_salt_max             =   3.4700000000000E+01
(PID.TID 0000.0001) %MON dynstat_salt_min             =   3.4000000000000E+01
(PID.TID 0000.0001) %MON dynstat_salt_mean            =   3.4498055467246E+01
(PID.TID 0000.0001) %MON dynstat_salt_sd              =   2.7014654830522E-01
(PID.TID 0000.0001) %MON dynstat_salt_del2            =   4.3094387639419E-07
(PID.TID 0000.0001) %MON advcfl_uvel_max              =   8.5673656548035E-04
(PID.TID 0000.0001) %MON advcfl_vvel_max              =   7.6649546394687E-04
(PID.TID 0000.0001) %MON advcfl_wvel_max              =   1.5956174992723E-03
(PID.TID 0000.0001) %MON advcfl_W_hf_max              =   1.5956174992723E-03
(PID.TID 0000.0001) %MON pe_b_mean                    =  -6.8262935797006E-01
(PID.TID 0000.0001) %MON ke_max                       =   2.2604746281639E-05
(PID.TID 0000.0001) %MON ke_mean                      =   3.7762293692754E-08
(PID.TID 0000.0001) %MON ke_vol                       =   4.6182934292750E+12
(PID.TID 0000.0001) // =======================================================
(PID.TID 0000.0001) // End MONITOR dynamic field statistics
(PID.TID 0000.0001) // =======================================================
(PID.TID 0000.0001) // =======================================================
(PID.TID 0000.0001) // Begin OBCS MONITOR field statistics
(PID.TID 0000.0001) // =======================================================
(PID.TID 0000.0001) %MON obc_N_vVel_max               =  -6.6859062133297E-08
(PID.TID 0000.0001) %MON obc_N_vVel_min               =  -6.6859062133298E-08
(PID.TID 0000.0001) %MON obc_N_vVel_mean              =  -6.6859062133297E-08
(PID.TID 0000.0001) %MON obc_N_vVel_sd                =  -9.4663308626521E-30
(PID.TID 0000.0001) %MON obc_N_vVel_Int               =  -4.4126981007976E+00
(PID.TID 0000.0001) // =======================================================
(PID.TID 0000.0001) // End OBCS MONITOR field statistics
(PID.TID 0000.0001) // =======================================================
 cg2d: Sum(rhs),rhsMax =   3.01122421326690E+00  4.53048558441601E+02
(PID.TID 0000.0001)      cg2d_init_res =   1.39841871878929E-06
(PID.TID 0000.0001)      cg2d_iters(min,last) =      -1      71
(PID.TID 0000.0001)      cg2d_last_res =   9.40993242919427E-12
(PID.TID 0000.0001) // =======================================================
(PID.TID 0000.0001) // Begin MONITOR dynamic field statistics
(PID.TID 0000.0001) // =======================================================
(PID.TID 0000.0001) %MON time_tsnumber                =                   670
(PID.TID 0000.0001) %MON time_secondsf                =   6.7000000000000E+04
(PID.TID 0000.0001) %MON dynstat_eta_max              =   5.7973316343725E+00
(PID.TID 0000.0001) %MON dynstat_eta_min              =  -1.4175171653056E+01
(PID.TID 0000.0001) %MON dynstat_eta_mean             =  -2.5263533128982E+00
(PID.TID 0000.0001) %MON dynstat_eta_sd               =   4.9417497793033E+00
(PID.TID 0000.0001) %MON dynstat_eta_del2             =   1.9058171794543E-01
(PID.TID 0000.0001) %MON dynstat_uvel_max             =   2.8079031847987E-03
(PID.TID 0000.0001) %MON dynstat_uvel_min             =  -8.5926250259414E-03
(PID.TID 0000.0001) %MON dynstat_uvel_mean            =  -1.2248420753300E-09
(PID.TID 0000.0001) %MON dynstat_uvel_sd              =   2.3766151560326E-04
(PID.TID 0000.0001) %MON dynstat_uvel_del2            =   4.1344015544041E-07
(PID.TID 0000.0001) %MON dynstat_vvel_max             =   7.6815703147661E-03
(PID.TID 0000.0001) %MON dynstat_vvel_min             =  -2.4389406437431E-03
(PID.TID 0000.0001) %MON dynstat_vvel_mean            =  -5.4801668492065E-08
(PID.TID 0000.0001) %MON dynstat_vvel_sd              =   1.4285036338918E-04
(PID.TID 0000.0001) %MON dynstat_vvel_del2            =   3.9349753255891E-07
(PID.TID 0000.0001) %MON dynstat_wvel_max             =   3.2023360575586E-04
(PID.TID 0000.0001) %MON dynstat_wvel_min             =  -3.1089214549673E-04
(PID.TID 0000.0001) %MON dynstat_wvel_mean            =   1.6231217985998E-10
(PID.TID 0000.0001) %MON dynstat_wvel_sd              =   9.8628856789231E-06
(PID.TID 0000.0001) %MON dynstat_wvel_del2            =   4.0431416198151E-08
(PID.TID 0000.0001) %MON dynstat_theta_max            =   1.2000000000000E+00
(PID.TID 0000.0001) %MON dynstat_theta_min            =  -1.0000000000000E+00
(PID.TID 0000.0001) %MON dynstat_theta_mean           =   5.6535414575613E-01
(PID.TID 0000.0001) %MON dynstat_theta_sd             =   8.4903087843914E-01
(PID.TID 0000.0001) %MON dynstat_theta_del2           =   1.1123434294498E-06
(PID.TID 0000.0001) %MON dynstat_salt_max             =   3.4700000000000E+01
(PID.TID 0000.0001) %MON dynstat_salt_min             =   3.4000000000000E+01
(PID.TID 0000.0001) %MON dynstat_salt_mean            =   3.4498055350044E+01
(PID.TID 0000.0001) %MON dynstat_salt_sd              =   2.7014651378819E-01
(PID.TID 0000.0001) %MON dynstat_salt_del2            =   4.3185355629665E-07
(PID.TID 0000.0001) %MON advcfl_uvel_max              =   8.5926250259414E-04
(PID.TID 0000.0001) %MON advcfl_vvel_max              =   7.6815703147661E-04
(PID.TID 0000.0001) %MON advcfl_wvel_max              =   1.6011680287793E-03
(PID.TID 0000.0001) %MON advcfl_W_hf_max              =   1.6011680287793E-03
(PID.TID 0000.0001) %MON pe_b_mean                    =  -6.8262860393141E-01
(PID.TID 0000.0001) %MON ke_max                       =   2.2736964750221E-05
(PID.TID 0000.0001) %MON ke_mean                      =   3.7913397688075E-08
(PID.TID 0000.0001) %MON ke_vol                       =   4.6182934452875E+12
(PID.TID 0000.0001) // =======================================================
(PID.TID 0000.0001) // End MONITOR dynamic field statistics
(PID.TID 0000.0001) // =======================================================
(PID.TID 0000.0001) // =======================================================
(PID.TID 0000.0001) // Begin OBCS MONITOR field statistics
(PID.TID 0000.0001) // =======================================================
(PID.TID 0000.0001) %MON obc_N_vVel_max               =  -6.7205852313570E-08
(PID.TID 0000.0001) %MON obc_N_vVel_min               =  -6.7205852313572E-08
(PID.TID 0000.0001) %MON obc_N_vVel_mean              =  -6.7205852313570E-08
(PID.TID 0000.0001) %MON obc_N_vVel_sd                =   1.4941473694972E-14
(PID.TID 0000.0001) %MON obc_N_vVel_Int               =  -4.4355862526956E+00
(PID.TID 0000.0001) // =======================================================
(PID.TID 0000.0001) // End OBCS MONITOR field statistics
(PID.TID 0000.0001) // =======================================================
 cg2d: Sum(rhs),rhsMax =   3.01122105717423E+00  4.53048548576838E+02
(PID.TID 0000.0001)      cg2d_init_res =   1.39280449289984E-06
(PID.TID 0000.0001)      cg2d_iters(min,last) =      -1      71
(PID.TID 0000.0001)      cg2d_last_res =   9.42435456731945E-12
(PID.TID 0000.0001) // =======================================================
(PID.TID 0000.0001) // Begin MONITOR dynamic field statistics
(PID.TID 0000.0001) // =======================================================
(PID.TID 0000.0001) %MON time_tsnumber                =                   671
(PID.TID 0000.0001) %MON time_secondsf                =   6.7100000000000E+04
(PID.TID 0000.0001) %MON dynstat_eta_max              =   5.7973343790592E+00
(PID.TID 0000.0001) %MON dynstat_eta_min              =  -1.4175167056440E+01
(PID.TID 0000.0001) %MON dynstat_eta_mean             =  -2.5263506099941E+00
(PID.TID 0000.0001) %MON dynstat_eta_sd               =   4.9417489403630E+00
(PID.TID 0000.0001) %MON dynstat_eta_del2             =   1.9058172294809E-01
(PID.TID 0000.0001) %MON dynstat_uvel_max             =   2.8126225985634E-03
(PID.TID 0000.0001) %MON dynstat_uvel_min             =  -8.6179451349357E-03
(PID.TID 0000.0001) %MON dynstat_uvel_mean            =  -1.2221922389605E-09
(PID.TID 0000.0001) %MON dynstat_uvel_sd              =   2.3817455326540E-04
(PID.TID 0000.0001) %MON dynstat_uvel_del2            =   4.1429078081934E-07
(PID.TID 0000.0001) %MON dynstat_vvel_max             =   7.6982115673689E-03
(PID.TID 0000.0001) %MON dynstat_vvel_min             =  -2.4463017039675E-03
(PID.TID 0000.0001) %MON dynstat_vvel_mean            =  -5.5121541850025E-08
(PID.TID 0000.0001) %MON dynstat_vvel_sd              =   1.4309078570296E-04
(PID.TID 0000.0001) %MON dynstat_vvel_del2            =   3.9411884844637E-07
(PID.TID 0000.0001) %MON dynstat_wvel_max             =   3.2134614396314E-04
(PID.TID 0000.0001) %MON dynstat_wvel_min             =  -3.1192701032761E-04
(PID.TID 0000.0001) %MON dynstat_wvel_mean            =   1.6262331053144E-10
(PID.TID 0000.0001) %MON dynstat_wvel_sd              =   9.8021873812373E-06
(PID.TID 0000.0001) %MON dynstat_wvel_del2            =   3.9853728695902E-08
(PID.TID 0000.0001) %MON dynstat_theta_max            =   1.2000000000000E+00
(PID.TID 0000.0001) %MON dynstat_theta_min            =  -1.0000000000000E+00
(PID.TID 0000.0001) %MON dynstat_theta_mean           =   5.6535385024732E-01
(PID.TID 0000.0001) %MON dynstat_theta_sd             =   8.4903077991530E-01
(PID.TID 0000.0001) %MON dynstat_theta_del2           =   1.1145096515375E-06
(PID.TID 0000.0001) %MON dynstat_salt_max             =   3.4700000000000E+01
(PID.TID 0000.0001) %MON dynstat_salt_min             =   3.4000000000000E+01
(PID.TID 0000.0001) %MON dynstat_salt_mean            =   3.4498055232682E+01
(PID.TID 0000.0001) %MON dynstat_salt_sd              =   2.7014647920130E-01
(PID.TID 0000.0001) %MON dynstat_salt_del2            =   4.3272427607897E-07
(PID.TID 0000.0001) %MON advcfl_uvel_max              =   8.6179451349357E-04
(PID.TID 0000.0001) %MON advcfl_vvel_max              =   7.6982115673689E-04
(PID.TID 0000.0001) %MON advcfl_wvel_max              =   1.6067307198157E-03
(PID.TID 0000.0001) %MON advcfl_W_hf_max              =   1.6067307198157E-03
(PID.TID 0000.0001) %MON pe_b_mean                    =  -6.8262784878590E-01
(PID.TID 0000.0001) %MON ke_max                       =   2.2869899791682E-05
(PID.TID 0000.0001) %MON ke_mean                      =   3.8067536326419E-08
(PID.TID 0000.0001) %MON ke_vol                       =   4.6182934613214E+12
(PID.TID 0000.0001) // =======================================================
(PID.TID 0000.0001) // End MONITOR dynamic field statistics
(PID.TID 0000.0001) // =======================================================
(PID.TID 0000.0001) // =======================================================
(PID.TID 0000.0001) // Begin OBCS MONITOR field statistics
(PID.TID 0000.0001) // =======================================================
(PID.TID 0000.0001) %MON obc_N_vVel_max               =  -6.7536263530756E-08
(PID.TID 0000.0001) %MON obc_N_vVel_min               =  -6.7536263530759E-08
(PID.TID 0000.0001) %MON obc_N_vVel_mean              =  -6.7536263530756E-08
(PID.TID 0000.0001) %MON obc_N_vVel_sd                =   1.2338968948322E-14
(PID.TID 0000.0001) %MON obc_N_vVel_Int               =  -4.4573933930299E+00
(PID.TID 0000.0001) // =======================================================
(PID.TID 0000.0001) // End OBCS MONITOR field statistics
(PID.TID 0000.0001) // =======================================================
 cg2d: Sum(rhs),rhsMax =   3.01121789674537E+00  4.53048538722591E+02
(PID.TID 0000.0001)      cg2d_init_res =   1.39114518259250E-06
(PID.TID 0000.0001)      cg2d_iters(min,last) =      -1      71
(PID.TID 0000.0001)      cg2d_last_res =   9.43895718498464E-12
(PID.TID 0000.0001) // =======================================================
(PID.TID 0000.0001) // Begin MONITOR dynamic field statistics
(PID.TID 0000.0001) // =======================================================
(PID.TID 0000.0001) %MON time_tsnumber                =                   672
(PID.TID 0000.0001) %MON time_secondsf                =   6.7200000000000E+04
(PID.TID 0000.0001) %MON dynstat_eta_max              =   5.7973371215542E+00
(PID.TID 0000.0001) %MON dynstat_eta_min              =  -1.4175162464177E+01
(PID.TID 0000.0001) %MON dynstat_eta_mean             =  -2.5263479035107E+00
(PID.TID 0000.0001) %MON dynstat_eta_sd               =   4.9417481003961E+00
(PID.TID 0000.0001) %MON dynstat_eta_del2             =   1.9058172796029E-01
(PID.TID 0000.0001) %MON dynstat_uvel_max             =   2.8173481617273E-03
(PID.TID 0000.0001) %MON dynstat_uvel_min             =  -8.6433260885936E-03
(PID.TID 0000.0001) %MON dynstat_uvel_mean            =  -1.2202481830580E-09
(PID.TID 0000.0001) %MON dynstat_uvel_sd              =   2.3868990992537E-04
(PID.TID 0000.0001) %MON dynstat_uvel_del2            =   4.1514400759046E-07
(PID.TID 0000.0001) %MON dynstat_vvel_max             =   7.7148784375494E-03
(PID.TID 0000.0001) %MON dynstat_vvel_min             =  -2.4536735303666E-03
(PID.TID 0000.0001) %MON dynstat_vvel_mean            =  -5.5402816091933E-08
(PID.TID 0000.0001) %MON dynstat_vvel_sd              =   1.4334740715800E-04
(PID.TID 0000.0001) %MON dynstat_vvel_del2            =   3.9486356513992E-07
(PID.TID 0000.0001) %MON dynstat_wvel_max             =   3.2246112063852E-04
(PID.TID 0000.0001) %MON dynstat_wvel_min             =  -3.1296594070903E-04
(PID.TID 0000.0001) %MON dynstat_wvel_mean            =   1.6301858552560E-10
(PID.TID 0000.0001) %MON dynstat_wvel_sd              =   9.7992807569767E-06
(PID.TID 0000.0001) %MON dynstat_wvel_del2            =   3.9635851938588E-08
(PID.TID 0000.0001) %MON dynstat_theta_max            =   1.2000000000000E+00
(PID.TID 0000.0001) %MON dynstat_theta_min            =  -1.0000000000000E+00
(PID.TID 0000.0001) %MON dynstat_theta_mean           =   5.6535355434181E-01
(PID.TID 0000.0001) %MON dynstat_theta_sd             =   8.4903068121060E-01
(PID.TID 0000.0001) %MON dynstat_theta_del2           =   1.1165147043546E-06
(PID.TID 0000.0001) %MON dynstat_salt_max             =   3.4700000000000E+01
(PID.TID 0000.0001) %MON dynstat_salt_min             =   3.4000000000000E+01
(PID.TID 0000.0001) %MON dynstat_salt_mean            =   3.4498055115163E+01
(PID.TID 0000.0001) %MON dynstat_salt_sd              =   2.7014644453890E-01
(PID.TID 0000.0001) %MON dynstat_salt_del2            =   4.3355355358285E-07
(PID.TID 0000.0001) %MON advcfl_uvel_max              =   8.6433260885936E-04
(PID.TID 0000.0001) %MON advcfl_vvel_max              =   7.7148784375494E-04
(PID.TID 0000.0001) %MON advcfl_wvel_max              =   1.6123056031926E-03
(PID.TID 0000.0001) %MON advcfl_W_hf_max              =   1.6123056031926E-03
(PID.TID 0000.0001) %MON pe_b_mean                    =  -6.8262709253870E-01
(PID.TID 0000.0001) %MON ke_max                       =   2.3003554789634E-05
(PID.TID 0000.0001) %MON ke_mean                      =   3.8224856033828E-08
(PID.TID 0000.0001) %MON ke_vol                       =   4.6182934773766E+12
(PID.TID 0000.0001) // =======================================================
(PID.TID 0000.0001) // End MONITOR dynamic field statistics
(PID.TID 0000.0001) // =======================================================
(PID.TID 0000.0001) // =======================================================
(PID.TID 0000.0001) // Begin OBCS MONITOR field statistics
(PID.TID 0000.0001) // =======================================================
(PID.TID 0000.0001) %MON obc_N_vVel_max               =  -6.7838646488546E-08
(PID.TID 0000.0001) %MON obc_N_vVel_min               =  -6.7838646488546E-08
(PID.TID 0000.0001) %MON obc_N_vVel_mean              =  -6.7838646488546E-08
(PID.TID 0000.0001) %MON obc_N_vVel_sd                =  -4.7331654313261E-30
(PID.TID 0000.0001) %MON obc_N_vVel_Int               =  -4.4773506682441E+00
(PID.TID 0000.0001) // =======================================================
(PID.TID 0000.0001) // End OBCS MONITOR field statistics
(PID.TID 0000.0001) // =======================================================
 cg2d: Sum(rhs),rhsMax =   3.01121473199603E+00  4.53048528881923E+02
(PID.TID 0000.0001)      cg2d_init_res =   1.39366166559784E-06
(PID.TID 0000.0001)      cg2d_iters(min,last) =      -1      71
(PID.TID 0000.0001)      cg2d_last_res =   9.45447070124123E-12
(PID.TID 0000.0001) // =======================================================
(PID.TID 0000.0001) // Begin MONITOR dynamic field statistics
(PID.TID 0000.0001) // =======================================================
(PID.TID 0000.0001) %MON time_tsnumber                =                   673
(PID.TID 0000.0001) %MON time_secondsf                =   6.7300000000000E+04
(PID.TID 0000.0001) %MON dynstat_eta_max              =   5.7973398618027E+00
(PID.TID 0000.0001) %MON dynstat_eta_min              =  -1.4175157876245E+01
(PID.TID 0000.0001) %MON dynstat_eta_mean             =  -2.5263451934785E+00
(PID.TID 0000.0001) %MON dynstat_eta_sd               =   4.9417472594216E+00
(PID.TID 0000.0001) %MON dynstat_eta_del2             =   1.9058173298204E-01
(PID.TID 0000.0001) %MON dynstat_uvel_max             =   2.8220798282756E-03
(PID.TID 0000.0001) %MON dynstat_uvel_min             =  -8.6687679933597E-03
(PID.TID 0000.0001) %MON dynstat_uvel_mean            =  -1.2189616959573E-09
(PID.TID 0000.0001) %MON dynstat_uvel_sd              =   2.3920760109004E-04
(PID.TID 0000.0001) %MON dynstat_uvel_del2            =   4.1599987090600E-07
(PID.TID 0000.0001) %MON dynstat_vvel_max             =   7.7315709658135E-03
(PID.TID 0000.0001) %MON dynstat_vvel_min             =  -2.4610561465499E-03
(PID.TID 0000.0001) %MON dynstat_vvel_mean            =  -5.5634902368478E-08
(PID.TID 0000.0001) %MON dynstat_vvel_sd              =   1.4361997892190E-04
(PID.TID 0000.0001) %MON dynstat_vvel_del2            =   3.9572901780912E-07
(PID.TID 0000.0001) %MON dynstat_wvel_max             =   3.2357854203053E-04
(PID.TID 0000.0001) %MON dynstat_wvel_min             =  -3.1400895096570E-04
(PID.TID 0000.0001) %MON dynstat_wvel_mean            =   1.6348930540663E-10
(PID.TID 0000.0001) %MON dynstat_wvel_sd              =   9.8533279271455E-06
(PID.TID 0000.0001) %MON dynstat_wvel_del2            =   3.9792576033360E-08
(PID.TID 0000.0001) %MON dynstat_theta_max            =   1.2000000000000E+00
(PID.TID 0000.0001) %MON dynstat_theta_min            =  -1.0000000000000E+00
(PID.TID 0000.0001) %MON dynstat_theta_mean           =   5.6535325805555E-01
(PID.TID 0000.0001) %MON dynstat_theta_sd             =   8.4903058230104E-01
(PID.TID 0000.0001) %MON dynstat_theta_del2           =   1.1183604694883E-06
(PID.TID 0000.0001) %MON dynstat_salt_max             =   3.4700000000000E+01
(PID.TID 0000.0001) %MON dynstat_salt_min             =   3.4000000000000E+01
(PID.TID 0000.0001) %MON dynstat_salt_mean            =   3.4498054997494E+01
(PID.TID 0000.0001) %MON dynstat_salt_sd              =   2.7014640979329E-01
(PID.TID 0000.0001) %MON dynstat_salt_del2            =   4.3434189741995E-07
(PID.TID 0000.0001) %MON advcfl_uvel_max              =   8.6687679933597E-04
(PID.TID 0000.0001) %MON advcfl_vvel_max              =   7.7315709658135E-04
(PID.TID 0000.0001) %MON advcfl_wvel_max              =   1.6178927101526E-03
(PID.TID 0000.0001) %MON advcfl_W_hf_max              =   1.6178927101526E-03
(PID.TID 0000.0001) %MON pe_b_mean                    =  -6.8262633519701E-01
(PID.TID 0000.0001) %MON ke_max                       =   2.3137933137483E-05
(PID.TID 0000.0001) %MON ke_mean                      =   3.8385340701845E-08
(PID.TID 0000.0001) %MON ke_vol                       =   4.6182934934531E+12
(PID.TID 0000.0001) // =======================================================
(PID.TID 0000.0001) // End MONITOR dynamic field statistics
(PID.TID 0000.0001) // =======================================================
(PID.TID 0000.0001) // =======================================================
(PID.TID 0000.0001) // Begin OBCS MONITOR field statistics
(PID.TID 0000.0001) // =======================================================
(PID.TID 0000.0001) %MON obc_N_vVel_max               =  -6.8102409121591E-08
(PID.TID 0000.0001) %MON obc_N_vVel_min               =  -6.8102409121592E-08
(PID.TID 0000.0001) %MON obc_N_vVel_mean              =  -6.8102409121592E-08
(PID.TID 0000.0001) %MON obc_N_vVel_sd                =   1.7763568394003E-15
(PID.TID 0000.0001) %MON obc_N_vVel_Int               =  -4.4947590020251E+00
(PID.TID 0000.0001) // =======================================================
(PID.TID 0000.0001) // End OBCS MONITOR field statistics
(PID.TID 0000.0001) // =======================================================
 cg2d: Sum(rhs),rhsMax =   3.01121156295201E+00  4.53048519057514E+02
(PID.TID 0000.0001)      cg2d_init_res =   1.40021116473748E-06
(PID.TID 0000.0001)      cg2d_iters(min,last) =      -1      71
(PID.TID 0000.0001)      cg2d_last_res =   9.47128356792960E-12
(PID.TID 0000.0001) // =======================================================
(PID.TID 0000.0001) // Begin MONITOR dynamic field statistics
(PID.TID 0000.0001) // =======================================================
(PID.TID 0000.0001) %MON time_tsnumber                =                   674
(PID.TID 0000.0001) %MON time_secondsf                =   6.7400000000000E+04
(PID.TID 0000.0001) %MON dynstat_eta_max              =   5.7973425997565E+00
(PID.TID 0000.0001) %MON dynstat_eta_min              =  -1.4175153292634E+01
(PID.TID 0000.0001) %MON dynstat_eta_mean             =  -2.5263424799338E+00
(PID.TID 0000.0001) %MON dynstat_eta_sd               =   4.9417464174600E+00
(PID.TID 0000.0001) %MON dynstat_eta_del2             =   1.9058173801339E-01
(PID.TID 0000.0001) %MON dynstat_uvel_max             =   2.8268175513393E-03
(PID.TID 0000.0001) %MON dynstat_uvel_min             =  -8.6942709550870E-03
(PID.TID 0000.0001) %MON dynstat_uvel_mean            =  -1.2182702848306E-09
(PID.TID 0000.0001) %MON dynstat_uvel_sd              =   2.3972764232617E-04
(PID.TID 0000.0001) %MON dynstat_uvel_del2            =   4.1685841541249E-07
(PID.TID 0000.0001) %MON dynstat_vvel_max             =   7.7482891917957E-03
(PID.TID 0000.0001) %MON dynstat_vvel_min             =  -2.4684495766882E-03
(PID.TID 0000.0001) %MON dynstat_vvel_mean            =  -5.5808948996554E-08
(PID.TID 0000.0001) %MON dynstat_vvel_sd              =   1.4390714797822E-04
(PID.TID 0000.0001) %MON dynstat_vvel_del2            =   3.9670344937811E-07
(PID.TID 0000.0001) %MON dynstat_wvel_max             =   3.2469841440368E-04
(PID.TID 0000.0001) %MON dynstat_wvel_min             =  -3.1505605523603E-04
(PID.TID 0000.0001) %MON dynstat_wvel_mean            =   1.6402445079855E-10
(PID.TID 0000.0001) %MON dynstat_wvel_sd              =   9.9582738433002E-06
(PID.TID 0000.0001) %MON dynstat_wvel_del2            =   4.0299962653584E-08
(PID.TID 0000.0001) %MON dynstat_theta_max            =   1.2000000000000E+00
(PID.TID 0000.0001) %MON dynstat_theta_min            =  -1.0000000000000E+00
(PID.TID 0000.0001) %MON dynstat_theta_mean           =   5.6535296140437E-01
(PID.TID 0000.0001) %MON dynstat_theta_sd             =   8.4903048316708E-01
(PID.TID 0000.0001) %MON dynstat_theta_del2           =   1.1200604470271E-06
(PID.TID 0000.0001) %MON dynstat_salt_max             =   3.4700000000000E+01
(PID.TID 0000.0001) %MON dynstat_salt_min             =   3.4000000000000E+01
(PID.TID 0000.0001) %MON dynstat_salt_mean            =   3.4498054879680E+01
(PID.TID 0000.0001) %MON dynstat_salt_sd              =   2.7014637495806E-01
(PID.TID 0000.0001) %MON dynstat_salt_del2            =   4.3509284999599E-07
(PID.TID 0000.0001) %MON advcfl_uvel_max              =   8.6942709550870E-04
(PID.TID 0000.0001) %MON advcfl_vvel_max              =   7.7482891917957E-04
(PID.TID 0000.0001) %MON advcfl_wvel_max              =   1.6234920720184E-03
(PID.TID 0000.0001) %MON advcfl_W_hf_max              =   1.6234920720184E-03
(PID.TID 0000.0001) %MON pe_b_mean                    =  -6.8262557676899E-01
(PID.TID 0000.0001) %MON ke_max                       =   2.3273038237606E-05
(PID.TID 0000.0001) %MON ke_mean                      =   3.8548815888319E-08
(PID.TID 0000.0001) %MON ke_vol                       =   4.6182935095507E+12
(PID.TID 0000.0001) // =======================================================
(PID.TID 0000.0001) // End MONITOR dynamic field statistics
(PID.TID 0000.0001) // =======================================================
(PID.TID 0000.0001) // =======================================================
(PID.TID 0000.0001) // Begin OBCS MONITOR field statistics
(PID.TID 0000.0001) // =======================================================
(PID.TID 0000.0001) %MON obc_N_vVel_max               =  -6.8318337402225E-08
(PID.TID 0000.0001) %MON obc_N_vVel_min               =  -6.8318337402226E-08
(PID.TID 0000.0001) %MON obc_N_vVel_mean              =  -6.8318337402226E-08
(PID.TID 0000.0001) %MON obc_N_vVel_sd                =   8.6112092699443E-15
(PID.TID 0000.0001) %MON obc_N_vVel_Int               =  -4.5090102685469E+00
(PID.TID 0000.0001) // =======================================================
(PID.TID 0000.0001) // End OBCS MONITOR field statistics
(PID.TID 0000.0001) // =======================================================
 cg2d: Sum(rhs),rhsMax =   3.01120838965577E+00  4.53048509251634E+02
(PID.TID 0000.0001)      cg2d_init_res =   1.41032387100464E-06
(PID.TID 0000.0001)      cg2d_iters(min,last) =      -1      71
(PID.TID 0000.0001)      cg2d_last_res =   9.49007623194083E-12
(PID.TID 0000.0001) // =======================================================
(PID.TID 0000.0001) // Begin MONITOR dynamic field statistics
(PID.TID 0000.0001) // =======================================================
(PID.TID 0000.0001) %MON time_tsnumber                =                   675
(PID.TID 0000.0001) %MON time_secondsf                =   6.7500000000000E+04
(PID.TID 0000.0001) %MON dynstat_eta_max              =   5.7973453353515E+00
(PID.TID 0000.0001) %MON dynstat_eta_min              =  -1.4175148713368E+01
(PID.TID 0000.0001) %MON dynstat_eta_mean             =  -2.5263397629251E+00
(PID.TID 0000.0001) %MON dynstat_eta_sd               =   4.9417455745320E+00
(PID.TID 0000.0001) %MON dynstat_eta_del2             =   1.9058174305428E-01
(PID.TID 0000.0001) %MON dynstat_uvel_max             =   2.8315612837204E-03
(PID.TID 0000.0001) %MON dynstat_uvel_min             =  -8.7198350790727E-03
(PID.TID 0000.0001) %MON dynstat_uvel_mean            =  -1.2180898203030E-09
(PID.TID 0000.0001) %MON dynstat_uvel_sd              =   2.4025004910094E-04
(PID.TID 0000.0001) %MON dynstat_uvel_del2            =   4.1771969214269E-07
(PID.TID 0000.0001) %MON dynstat_vvel_max             =   7.7650331540269E-03
(PID.TID 0000.0001) %MON dynstat_vvel_min             =  -2.4758538454632E-03
(PID.TID 0000.0001) %MON dynstat_vvel_mean            =  -5.5918084742481E-08
(PID.TID 0000.0001) %MON dynstat_vvel_sd              =   1.4420658150043E-04
(PID.TID 0000.0001) %MON dynstat_vvel_del2            =   3.9776705735525E-07
(PID.TID 0000.0001) %MON dynstat_wvel_max             =   3.2582074536954E-04
(PID.TID 0000.0001) %MON dynstat_wvel_min             =  -3.1610726755570E-04
(PID.TID 0000.0001) %MON dynstat_wvel_mean            =   1.6461097192757E-10
(PID.TID 0000.0001) %MON dynstat_wvel_sd              =   1.0103727322424E-05
(PID.TID 0000.0001) %MON dynstat_wvel_del2            =   4.1099788645063E-08
(PID.TID 0000.0001) %MON dynstat_theta_max            =   1.2000000000000E+00
(PID.TID 0000.0001) %MON dynstat_theta_min            =  -1.0000000000000E+00
(PID.TID 0000.0001) %MON dynstat_theta_mean           =   5.6535266440444E-01
(PID.TID 0000.0001) %MON dynstat_theta_sd             =   8.4903038377495E-01
(PID.TID 0000.0001) %MON dynstat_theta_del2           =   1.1216380700801E-06
(PID.TID 0000.0001) %MON dynstat_salt_max             =   3.4700000000000E+01
(PID.TID 0000.0001) %MON dynstat_salt_min             =   3.4000000000000E+01
(PID.TID 0000.0001) %MON dynstat_salt_mean            =   3.4498054761724E+01
(PID.TID 0000.0001) %MON dynstat_salt_sd              =   2.7014634002269E-01
(PID.TID 0000.0001) %MON dynstat_salt_del2            =   4.3581252520279E-07
(PID.TID 0000.0001) %MON advcfl_uvel_max              =   8.7198350790727E-04
(PID.TID 0000.0001) %MON advcfl_vvel_max              =   7.7650331540269E-04
(PID.TID 0000.0001) %MON advcfl_wvel_max              =   1.6291037268477E-03
(PID.TID 0000.0001) %MON advcfl_W_hf_max              =   1.6291037268477E-03
(PID.TID 0000.0001) %MON pe_b_mean                    =  -6.8262481726476E-01
(PID.TID 0000.0001) %MON ke_max                       =   2.3408873501303E-05
(PID.TID 0000.0001) %MON ke_mean                      =   3.8714965011254E-08
(PID.TID 0000.0001) %MON ke_vol                       =   4.6182935256692E+12
(PID.TID 0000.0001) // =======================================================
(PID.TID 0000.0001) // End MONITOR dynamic field statistics
(PID.TID 0000.0001) // =======================================================
(PID.TID 0000.0001) // =======================================================
(PID.TID 0000.0001) // Begin OBCS MONITOR field statistics
(PID.TID 0000.0001) // =======================================================
(PID.TID 0000.0001) %MON obc_N_vVel_max               =  -6.8478866312357E-08
(PID.TID 0000.0001) %MON obc_N_vVel_min               =  -6.8478866312358E-08
(PID.TID 0000.0001) %MON obc_N_vVel_mean              =  -6.8478866312358E-08
(PID.TID 0000.0001) %MON obc_N_vVel_sd                =  -2.0510383535746E-29
(PID.TID 0000.0001) %MON obc_N_vVel_Int               =  -4.5196051766157E+00
(PID.TID 0000.0001) // =======================================================
(PID.TID 0000.0001) // End OBCS MONITOR field statistics
(PID.TID 0000.0001) // =======================================================
 cg2d: Sum(rhs),rhsMax =   3.01120521216092E+00  4.53048499466075E+02
(PID.TID 0000.0001)      cg2d_init_res =   1.42324594205200E-06
(PID.TID 0000.0001)      cg2d_iters(min,last) =      -1      71
(PID.TID 0000.0001)      cg2d_last_res =   9.51117296946993E-12
(PID.TID 0000.0001) // =======================================================
(PID.TID 0000.0001) // Begin MONITOR dynamic field statistics
(PID.TID 0000.0001) // =======================================================
(PID.TID 0000.0001) %MON time_tsnumber                =                   676
(PID.TID 0000.0001) %MON time_secondsf                =   6.7600000000000E+04
(PID.TID 0000.0001) %MON dynstat_eta_max              =   5.7973480685146E+00
(PID.TID 0000.0001) %MON dynstat_eta_min              =  -1.4175144138455E+01
(PID.TID 0000.0001) %MON dynstat_eta_mean             =  -2.5263370425073E+00
(PID.TID 0000.0001) %MON dynstat_eta_sd               =   4.9417447306603E+00
(PID.TID 0000.0001) %MON dynstat_eta_del2             =   1.9058174810474E-01
(PID.TID 0000.0001) %MON dynstat_uvel_max             =   2.8363109777914E-03
(PID.TID 0000.0001) %MON dynstat_uvel_min             =  -8.7454604701556E-03
(PID.TID 0000.0001) %MON dynstat_uvel_mean            =  -1.2183100828524E-09
(PID.TID 0000.0001) %MON dynstat_uvel_sd              =   2.4077483654662E-04
(PID.TID 0000.0001) %MON dynstat_uvel_del2            =   4.1858375472910E-07
(PID.TID 0000.0001) %MON dynstat_vvel_max             =   7.7818028899401E-03
(PID.TID 0000.0001) %MON dynstat_vvel_min             =  -2.4832689779624E-03
(PID.TID 0000.0001) %MON dynstat_vvel_mean            =  -5.5957662933853E-08
(PID.TID 0000.0001) %MON dynstat_vvel_sd              =   1.4451516448972E-04
(PID.TID 0000.0001) %MON dynstat_vvel_del2            =   3.9889366030881E-07
(PID.TID 0000.0001) %MON dynstat_wvel_max             =   3.2694554393139E-04
(PID.TID 0000.0001) %MON dynstat_wvel_min             =  -3.1716260181495E-04
(PID.TID 0000.0001) %MON dynstat_wvel_mean            =   1.6523423429917E-10
(PID.TID 0000.0001) %MON dynstat_wvel_sd              =   1.0276326557765E-05
(PID.TID 0000.0001) %MON dynstat_wvel_del2            =   4.2109434828136E-08
(PID.TID 0000.0001) %MON dynstat_theta_max            =   1.2000000000000E+00
(PID.TID 0000.0001) %MON dynstat_theta_min            =  -1.0000000000000E+00
(PID.TID 0000.0001) %MON dynstat_theta_mean           =   5.6535236707158E-01
(PID.TID 0000.0001) %MON dynstat_theta_sd             =   8.4903028410517E-01
(PID.TID 0000.0001) %MON dynstat_theta_del2           =   1.1231257327880E-06
(PID.TID 0000.0001) %MON dynstat_salt_max             =   3.4700000000000E+01
(PID.TID 0000.0001) %MON dynstat_salt_min             =   3.4000000000000E+01
(PID.TID 0000.0001) %MON dynstat_salt_mean            =   3.4498054643632E+01
(PID.TID 0000.0001) %MON dynstat_salt_sd              =   2.7014630498081E-01
(PID.TID 0000.0001) %MON dynstat_salt_del2            =   4.3650941708571E-07
(PID.TID 0000.0001) %MON advcfl_uvel_max              =   8.7454604701556E-04
(PID.TID 0000.0001) %MON advcfl_vvel_max              =   7.7818028899401E-04
(PID.TID 0000.0001) %MON advcfl_wvel_max              =   1.6347277196569E-03
(PID.TID 0000.0001) %MON advcfl_W_hf_max              =   1.6347277196569E-03
(PID.TID 0000.0001) %MON pe_b_mean                    =  -6.8262405669551E-01
(PID.TID 0000.0001) %MON ke_max                       =   2.3545442349197E-05
(PID.TID 0000.0001) %MON ke_mean                      =   3.8883356145348E-08
(PID.TID 0000.0001) %MON ke_vol                       =   4.6182935418082E+12
(PID.TID 0000.0001) // =======================================================
(PID.TID 0000.0001) // End MONITOR dynamic field statistics
(PID.TID 0000.0001) // =======================================================
(PID.TID 0000.0001) // =======================================================
(PID.TID 0000.0001) // Begin OBCS MONITOR field statistics
(PID.TID 0000.0001) // =======================================================
(PID.TID 0000.0001) %MON obc_N_vVel_max               =  -6.8578319262690E-08
(PID.TID 0000.0001) %MON obc_N_vVel_min               =  -6.8578319262691E-08
(PID.TID 0000.0001) %MON obc_N_vVel_mean              =  -6.8578319262690E-08
(PID.TID 0000.0001) %MON obc_N_vVel_sd                =   8.7925177686291E-15
(PID.TID 0000.0001) %MON obc_N_vVel_Int               =  -4.5261690713375E+00
(PID.TID 0000.0001) // =======================================================
(PID.TID 0000.0001) // End OBCS MONITOR field statistics
(PID.TID 0000.0001) // =======================================================
 cg2d: Sum(rhs),rhsMax =   3.01120203052738E+00  4.53048489702201E+02
(PID.TID 0000.0001)      cg2d_init_res =   1.43801962539436E-06
(PID.TID 0000.0001)      cg2d_iters(min,last) =      -1      71
(PID.TID 0000.0001)      cg2d_last_res =   9.53456573773825E-12
(PID.TID 0000.0001) // =======================================================
(PID.TID 0000.0001) // Begin MONITOR dynamic field statistics
(PID.TID 0000.0001) // =======================================================
(PID.TID 0000.0001) %MON time_tsnumber                =                   677
(PID.TID 0000.0001) %MON time_secondsf                =   6.7700000000000E+04
(PID.TID 0000.0001) %MON dynstat_eta_max              =   5.7973507991894E+00
(PID.TID 0000.0001) %MON dynstat_eta_min              =  -1.4175139567921E+01
(PID.TID 0000.0001) %MON dynstat_eta_mean             =  -2.5263343187382E+00
(PID.TID 0000.0001) %MON dynstat_eta_sd               =   4.9417438858683E+00
(PID.TID 0000.0001) %MON dynstat_eta_del2             =   1.9058175316484E-01
(PID.TID 0000.0001) %MON dynstat_uvel_max             =   2.8410666064822E-03
(PID.TID 0000.0001) %MON dynstat_uvel_min             =  -8.7711472326273E-03
(PID.TID 0000.0001) %MON dynstat_uvel_mean            =  -1.2188069987187E-09
(PID.TID 0000.0001) %MON dynstat_uvel_sd              =   2.4130201918234E-04
(PID.TID 0000.0001) %MON dynstat_uvel_del2            =   4.1945065506443E-07
(PID.TID 0000.0001) %MON dynstat_vvel_max             =   7.7985984365290E-03
(PID.TID 0000.0001) %MON dynstat_vvel_min             =  -2.4906949998007E-03
(PID.TID 0000.0001) %MON dynstat_vvel_mean            =  -5.5925336181001E-08
(PID.TID 0000.0001) %MON dynstat_vvel_sd              =   1.4482925387875E-04
(PID.TID 0000.0001) %MON dynstat_vvel_del2            =   4.0005283587304E-07
(PID.TID 0000.0001) %MON dynstat_wvel_max             =   3.2807281578742E-04
(PID.TID 0000.0001) %MON dynstat_wvel_min             =  -3.1822207172104E-04
(PID.TID 0000.0001) %MON dynstat_wvel_mean            =   1.6587865061562E-10
(PID.TID 0000.0001) %MON dynstat_wvel_sd              =   1.0461267319473E-05
(PID.TID 0000.0001) %MON dynstat_wvel_del2            =   4.3233846683187E-08
(PID.TID 0000.0001) %MON dynstat_theta_max            =   1.2000000000000E+00
(PID.TID 0000.0001) %MON dynstat_theta_min            =  -1.0000000000000E+00
(PID.TID 0000.0001) %MON dynstat_theta_mean           =   5.6535206942081E-01
(PID.TID 0000.0001) %MON dynstat_theta_sd             =   8.4903018414439E-01
(PID.TID 0000.0001) %MON dynstat_theta_del2           =   1.1245614678402E-06
(PID.TID 0000.0001) %MON dynstat_salt_max             =   3.4700000000000E+01
(PID.TID 0000.0001) %MON dynstat_salt_min             =   3.4000000000000E+01
(PID.TID 0000.0001) %MON dynstat_salt_mean            =   3.4498054525408E+01
(PID.TID 0000.0001) %MON dynstat_salt_sd              =   2.7014626982800E-01
(PID.TID 0000.0001) %MON dynstat_salt_del2            =   4.3719341106081E-07
(PID.TID 0000.0001) %MON advcfl_uvel_max              =   8.7711472326273E-04
(PID.TID 0000.0001) %MON advcfl_vvel_max              =   7.7985984365290E-04
(PID.TID 0000.0001) %MON advcfl_wvel_max              =   1.6403640789371E-03
(PID.TID 0000.0001) %MON advcfl_W_hf_max              =   1.6403640789371E-03
(PID.TID 0000.0001) %MON pe_b_mean                    =  -6.8262329507261E-01
(PID.TID 0000.0001) %MON ke_max                       =   2.3682748210711E-05
(PID.TID 0000.0001) %MON ke_mean                      =   3.9053477263691E-08
(PID.TID 0000.0001) %MON ke_vol                       =   4.6182935579675E+12
(PID.TID 0000.0001) // =======================================================
(PID.TID 0000.0001) // End MONITOR dynamic field statistics
(PID.TID 0000.0001) // =======================================================
(PID.TID 0000.0001) // =======================================================
(PID.TID 0000.0001) // Begin OBCS MONITOR field statistics
(PID.TID 0000.0001) // =======================================================
(PID.TID 0000.0001) %MON obc_N_vVel_max               =  -6.8613080848704E-08
(PID.TID 0000.0001) %MON obc_N_vVel_min               =  -6.8613080848706E-08
(PID.TID 0000.0001) %MON obc_N_vVel_mean              =  -6.8613080848704E-08
(PID.TID 0000.0001) %MON obc_N_vVel_sd                =   1.4043333874307E-14
(PID.TID 0000.0001) %MON obc_N_vVel_Int               =  -4.5284633360145E+00
(PID.TID 0000.0001) // =======================================================
(PID.TID 0000.0001) // End OBCS MONITOR field statistics
(PID.TID 0000.0001) // =======================================================
 cg2d: Sum(rhs),rhsMax =   3.01119884482170E+00  4.53048479960889E+02
(PID.TID 0000.0001)      cg2d_init_res =   1.45356708574086E-06
(PID.TID 0000.0001)      cg2d_iters(min,last) =      -1      71
(PID.TID 0000.0001)      cg2d_last_res =   9.56006971713755E-12
(PID.TID 0000.0001) // =======================================================
(PID.TID 0000.0001) // Begin MONITOR dynamic field statistics
(PID.TID 0000.0001) // =======================================================
(PID.TID 0000.0001) %MON time_tsnumber                =                   678
(PID.TID 0000.0001) %MON time_secondsf                =   6.7800000000000E+04
(PID.TID 0000.0001) %MON dynstat_eta_max              =   5.7973535273096E+00
(PID.TID 0000.0001) %MON dynstat_eta_min              =  -1.4175135001785E+01
(PID.TID 0000.0001) %MON dynstat_eta_mean             =  -2.5263315916786E+00
(PID.TID 0000.0001) %MON dynstat_eta_sd               =   4.9417430401761E+00
(PID.TID 0000.0001) %MON dynstat_eta_del2             =   1.9058175823456E-01
(PID.TID 0000.0001) %MON dynstat_uvel_max             =   2.8458284847606E-03
(PID.TID 0000.0001) %MON dynstat_uvel_min             =  -8.7968954701925E-03
(PID.TID 0000.0001) %MON dynstat_uvel_mean            =  -1.2194512575953E-09
(PID.TID 0000.0001) %MON dynstat_uvel_sd              =   2.4183161063659E-04
(PID.TID 0000.0001) %MON dynstat_uvel_del2            =   4.2032043911973E-07
(PID.TID 0000.0001) %MON dynstat_vvel_max             =   7.8154198353522E-03
(PID.TID 0000.0001) %MON dynstat_vvel_min             =  -2.4981319371529E-03
(PID.TID 0000.0001) %MON dynstat_vvel_mean            =  -5.5821098605795E-08
(PID.TID 0000.0001) %MON dynstat_vvel_sd              =   1.4514496808173E-04
(PID.TID 0000.0001) %MON dynstat_vvel_del2            =   4.0121234445697E-07
(PID.TID 0000.0001) %MON dynstat_wvel_max             =   3.2920256765746E-04
(PID.TID 0000.0001) %MON dynstat_wvel_min             =  -3.1928569084318E-04
(PID.TID 0000.0001) %MON dynstat_wvel_mean            =   1.6652799021388E-10
(PID.TID 0000.0001) %MON dynstat_wvel_sd              =   1.0643720701714E-05
(PID.TID 0000.0001) %MON dynstat_wvel_del2            =   4.4376478560645E-08
(PID.TID 0000.0001) %MON dynstat_theta_max            =   1.2000000000000E+00
(PID.TID 0000.0001) %MON dynstat_theta_min            =  -1.0000000000000E+00
(PID.TID 0000.0001) %MON dynstat_theta_mean           =   5.6535177146627E-01
(PID.TID 0000.0001) %MON dynstat_theta_sd             =   8.4903008388016E-01
(PID.TID 0000.0001) %MON dynstat_theta_del2           =   1.1259859333934E-06
(PID.TID 0000.0001) %MON dynstat_salt_max             =   3.4700000000000E+01
(PID.TID 0000.0001) %MON dynstat_salt_min             =   3.4000000000000E+01
(PID.TID 0000.0001) %MON dynstat_salt_mean            =   3.4498054407058E+01
(PID.TID 0000.0001) %MON dynstat_salt_sd              =   2.7014623456036E-01
(PID.TID 0000.0001) %MON dynstat_salt_del2            =   4.3787514812407E-07
(PID.TID 0000.0001) %MON advcfl_uvel_max              =   8.7968954701925E-04
(PID.TID 0000.0001) %MON advcfl_vvel_max              =   7.8154198353522E-04
(PID.TID 0000.0001) %MON advcfl_wvel_max              =   1.6460128382873E-03
(PID.TID 0000.0001) %MON advcfl_W_hf_max              =   1.6460128382873E-03
(PID.TID 0000.0001) %MON pe_b_mean                    =  -6.8262253240747E-01
(PID.TID 0000.0001) %MON ke_max                       =   2.3820794524133E-05
(PID.TID 0000.0001) %MON ke_mean                      =   3.9224777124005E-08
(PID.TID 0000.0001) %MON ke_vol                       =   4.6182935741467E+12
(PID.TID 0000.0001) // =======================================================
(PID.TID 0000.0001) // End MONITOR dynamic field statistics
(PID.TID 0000.0001) // =======================================================
(PID.TID 0000.0001) // =======================================================
(PID.TID 0000.0001) // Begin OBCS MONITOR field statistics
(PID.TID 0000.0001) // =======================================================
(PID.TID 0000.0001) %MON obc_N_vVel_max               =  -6.8581671520990E-08
(PID.TID 0000.0001) %MON obc_N_vVel_min               =  -6.8581671520993E-08
(PID.TID 0000.0001) %MON obc_N_vVel_mean              =  -6.8581671520993E-08
(PID.TID 0000.0001) %MON obc_N_vVel_sd                =  -3.9364159170528E-28
(PID.TID 0000.0001) %MON obc_N_vVel_Int               =  -4.5263903203855E+00
(PID.TID 0000.0001) // =======================================================
(PID.TID 0000.0001) // End OBCS MONITOR field statistics
(PID.TID 0000.0001) // =======================================================
 cg2d: Sum(rhs),rhsMax =   3.01119565511151E+00  4.53048470242561E+02
(PID.TID 0000.0001)      cg2d_init_res =   1.46880301559136E-06
(PID.TID 0000.0001)      cg2d_iters(min,last) =      -1      71
(PID.TID 0000.0001)      cg2d_last_res =   9.58745743709402E-12
(PID.TID 0000.0001) // =======================================================
(PID.TID 0000.0001) // Begin MONITOR dynamic field statistics
(PID.TID 0000.0001) // =======================================================
(PID.TID 0000.0001) %MON time_tsnumber                =                   679
(PID.TID 0000.0001) %MON time_secondsf                =   6.7900000000000E+04
(PID.TID 0000.0001) %MON dynstat_eta_max              =   5.7973562528158E+00
(PID.TID 0000.0001) %MON dynstat_eta_min              =  -1.4175130440060E+01
(PID.TID 0000.0001) %MON dynstat_eta_mean             =  -2.5263288613876E+00
(PID.TID 0000.0001) %MON dynstat_eta_sd               =   4.9417421936030E+00
(PID.TID 0000.0001) %MON dynstat_eta_del2             =   1.9058176331396E-01
(PID.TID 0000.0001) %MON dynstat_uvel_max             =   2.8505965735857E-03
(PID.TID 0000.0001) %MON dynstat_uvel_min             =  -8.8227052860157E-03
(PID.TID 0000.0001) %MON dynstat_uvel_mean            =  -1.2201146797627E-09
(PID.TID 0000.0001) %MON dynstat_uvel_sd              =   2.4236362331080E-04
(PID.TID 0000.0001) %MON dynstat_uvel_del2            =   4.2119314278117E-07
(PID.TID 0000.0001) %MON dynstat_vvel_max             =   7.8322671218551E-03
(PID.TID 0000.0001) %MON dynstat_vvel_min             =  -2.5055798165994E-03
(PID.TID 0000.0001) %MON dynstat_vvel_mean            =  -5.5647279140732E-08
(PID.TID 0000.0001) %MON dynstat_vvel_sd              =   1.4545848912797E-04
(PID.TID 0000.0001) %MON dynstat_vvel_del2            =   4.0234063849767E-07
(PID.TID 0000.0001) %MON dynstat_wvel_max             =   3.3033480592352E-04
(PID.TID 0000.0001) %MON dynstat_wvel_min             =  -3.2035347261552E-04
(PID.TID 0000.0001) %MON dynstat_wvel_mean            =   1.6716633575874E-10
(PID.TID 0000.0001) %MON dynstat_wvel_sd              =   1.0809984360525E-05
(PID.TID 0000.0001) %MON dynstat_wvel_del2            =   4.5447593953215E-08
(PID.TID 0000.0001) %MON dynstat_theta_max            =   1.2000000000000E+00
(PID.TID 0000.0001) %MON dynstat_theta_min            =  -1.0000000000000E+00
(PID.TID 0000.0001) %MON dynstat_theta_mean           =   5.6535147322073E-01
(PID.TID 0000.0001) %MON dynstat_theta_sd             =   8.4902998330828E-01
(PID.TID 0000.0001) %MON dynstat_theta_del2           =   1.1274393268395E-06
(PID.TID 0000.0001) %MON dynstat_salt_max             =   3.4700000000000E+01
(PID.TID 0000.0001) %MON dynstat_salt_min             =   3.4000000000000E+01
(PID.TID 0000.0001) %MON dynstat_salt_mean            =   3.4498054288585E+01
(PID.TID 0000.0001) %MON dynstat_salt_sd              =   2.7014619917652E-01
(PID.TID 0000.0001) %MON dynstat_salt_del2            =   4.3856510101495E-07
(PID.TID 0000.0001) %MON advcfl_uvel_max              =   8.8227052860157E-04
(PID.TID 0000.0001) %MON advcfl_vvel_max              =   7.8322671218551E-04
(PID.TID 0000.0001) %MON advcfl_wvel_max              =   1.6516740296176E-03
(PID.TID 0000.0001) %MON advcfl_W_hf_max              =   1.6516740296176E-03
(PID.TID 0000.0001) %MON pe_b_mean                    =  -6.8262176871071E-01
(PID.TID 0000.0001) %MON ke_max                       =   2.3959584736426E-05
(PID.TID 0000.0001) %MON ke_mean                      =   3.9396708624596E-08
(PID.TID 0000.0001) %MON ke_vol                       =   4.6182935903454E+12
(PID.TID 0000.0001) // =======================================================
(PID.TID 0000.0001) // End MONITOR dynamic field statistics
(PID.TID 0000.0001) // =======================================================
(PID.TID 0000.0001) // =======================================================
(PID.TID 0000.0001) // Begin OBCS MONITOR field statistics
(PID.TID 0000.0001) // =======================================================
(PID.TID 0000.0001) %MON obc_N_vVel_max               =  -6.8484799012535E-08
(PID.TID 0000.0001) %MON obc_N_vVel_min               =  -6.8484799012536E-08
(PID.TID 0000.0001) %MON obc_N_vVel_mean              =  -6.8484799012536E-08
(PID.TID 0000.0001) %MON obc_N_vVel_sd                =   2.1755839288168E-15
(PID.TID 0000.0001) %MON obc_N_vVel_Int               =  -4.5199967348274E+00
(PID.TID 0000.0001) // =======================================================
(PID.TID 0000.0001) // End OBCS MONITOR field statistics
(PID.TID 0000.0001) // =======================================================
 cg2d: Sum(rhs),rhsMax =   3.01119246146309E+00  4.53048460547205E+02
(PID.TID 0000.0001)      cg2d_init_res =   1.48269410443549E-06
(PID.TID 0000.0001)      cg2d_iters(min,last) =      -1      71
(PID.TID 0000.0001)      cg2d_last_res =   9.61688796274229E-12
(PID.TID 0000.0001) // =======================================================
(PID.TID 0000.0001) // Begin MONITOR dynamic field statistics
(PID.TID 0000.0001) // =======================================================
(PID.TID 0000.0001) %MON time_tsnumber                =                   680
(PID.TID 0000.0001) %MON time_secondsf                =   6.8000000000000E+04
(PID.TID 0000.0001) %MON dynstat_eta_max              =   5.7973589756769E+00
(PID.TID 0000.0001) %MON dynstat_eta_min              =  -1.4175125882743E+01
(PID.TID 0000.0001) %MON dynstat_eta_mean             =  -2.5263261279207E+00
(PID.TID 0000.0001) %MON dynstat_eta_sd               =   4.9417413461635E+00
(PID.TID 0000.0001) %MON dynstat_eta_del2             =   1.9058176840305E-01
(PID.TID 0000.0001) %MON dynstat_uvel_max             =   2.8553708355989E-03
(PID.TID 0000.0001) %MON dynstat_uvel_min             =  -8.8485767827091E-03
(PID.TID 0000.0001) %MON dynstat_uvel_mean            =  -1.2206732992535E-09
(PID.TID 0000.0001) %MON dynstat_uvel_sd              =   2.4289806813756E-04
(PID.TID 0000.0001) %MON dynstat_uvel_del2            =   4.2206878849473E-07
(PID.TID 0000.0001) %MON dynstat_vvel_max             =   7.8491403294305E-03
(PID.TID 0000.0001) %MON dynstat_vvel_min             =  -2.5130386651879E-03
(PID.TID 0000.0001) %MON dynstat_vvel_mean            =  -5.5408431751304E-08
(PID.TID 0000.0001) %MON dynstat_vvel_sd              =   1.4576635349347E-04
(PID.TID 0000.0001) %MON dynstat_vvel_del2            =   4.0340926236028E-07
(PID.TID 0000.0001) %MON dynstat_wvel_max             =   3.3146953692679E-04
(PID.TID 0000.0001) %MON dynstat_wvel_min             =  -3.2142543029983E-04
(PID.TID 0000.0001) %MON dynstat_wvel_mean            =   1.6777819959990E-10
(PID.TID 0000.0001) %MON dynstat_wvel_sd              =   1.0948324980596E-05
(PID.TID 0000.0001) %MON dynstat_wvel_del2            =   4.6369713782260E-08
(PID.TID 0000.0001) %MON dynstat_theta_max            =   1.2000000000000E+00
(PID.TID 0000.0001) %MON dynstat_theta_min            =  -1.0000000000000E+00
(PID.TID 0000.0001) %MON dynstat_theta_mean           =   5.6535117469531E-01
(PID.TID 0000.0001) %MON dynstat_theta_sd             =   8.4902988242935E-01
(PID.TID 0000.0001) %MON dynstat_theta_del2           =   1.1289583663391E-06
(PID.TID 0000.0001) %MON dynstat_salt_max             =   3.4700000000000E+01
(PID.TID 0000.0001) %MON dynstat_salt_min             =   3.4000000000000E+01
(PID.TID 0000.0001) %MON dynstat_salt_mean            =   3.4498054169992E+01
(PID.TID 0000.0001) %MON dynstat_salt_sd              =   2.7014616367655E-01
(PID.TID 0000.0001) %MON dynstat_salt_del2            =   4.3927286542778E-07
(PID.TID 0000.0001) %MON advcfl_uvel_max              =   8.8485767827091E-04
(PID.TID 0000.0001) %MON advcfl_vvel_max              =   7.8491403294305E-04
(PID.TID 0000.0001) %MON advcfl_wvel_max              =   1.6573476846339E-03
(PID.TID 0000.0001) %MON advcfl_W_hf_max              =   1.6573476846339E-03
(PID.TID 0000.0001) %MON pe_b_mean                    =  -6.8262100399168E-01
(PID.TID 0000.0001) %MON ke_max                       =   2.4099122303359E-05
(PID.TID 0000.0001) %MON ke_mean                      =   3.9568771245832E-08
(PID.TID 0000.0001) %MON ke_vol                       =   4.6182936065634E+12
(PID.TID 0000.0001) // =======================================================
(PID.TID 0000.0001) // End MONITOR dynamic field statistics
(PID.TID 0000.0001) // =======================================================
(PID.TID 0000.0001) // =======================================================
(PID.TID 0000.0001) // Begin OBCS MONITOR field statistics
(PID.TID 0000.0001) // =======================================================
(PID.TID 0000.0001) %MON obc_N_vVel_max               =  -6.8325250640741E-08
(PID.TID 0000.0001) %MON obc_N_vVel_min               =  -6.8325250640742E-08
(PID.TID 0000.0001) %MON obc_N_vVel_mean              =  -6.8325250640742E-08
(PID.TID 0000.0001) %MON obc_N_vVel_sd                =   8.0427976617669E-15
(PID.TID 0000.0001) %MON obc_N_vVel_Int               =  -4.5094665422890E+00
(PID.TID 0000.0001) // =======================================================
(PID.TID 0000.0001) // End OBCS MONITOR field statistics
(PID.TID 0000.0001) // =======================================================
 cg2d: Sum(rhs),rhsMax =   3.01118926393914E+00  4.53048450874397E+02
(PID.TID 0000.0001)      cg2d_init_res =   1.49434576710859E-06
(PID.TID 0000.0001)      cg2d_iters(min,last) =      -1      71
(PID.TID 0000.0001)      cg2d_last_res =   9.64793984844711E-12
(PID.TID 0000.0001) // =======================================================
(PID.TID 0000.0001) // Begin MONITOR dynamic field statistics
(PID.TID 0000.0001) // =======================================================
(PID.TID 0000.0001) %MON time_tsnumber                =                   681
(PID.TID 0000.0001) %MON time_secondsf                =   6.8100000000000E+04
(PID.TID 0000.0001) %MON dynstat_eta_max              =   5.7973616958456E+00
(PID.TID 0000.0001) %MON dynstat_eta_min              =  -1.4175121329820E+01
(PID.TID 0000.0001) %MON dynstat_eta_mean             =  -2.5263233913282E+00
(PID.TID 0000.0001) %MON dynstat_eta_sd               =   4.9417404978679E+00
(PID.TID 0000.0001) %MON dynstat_eta_del2             =   1.9058177350177E-01
(PID.TID 0000.0001) %MON dynstat_uvel_max             =   2.8601512329356E-03
(PID.TID 0000.0001) %MON dynstat_uvel_min             =  -8.8745100623715E-03
(PID.TID 0000.0001) %MON dynstat_uvel_mean            =  -1.2210164347104E-09
(PID.TID 0000.0001) %MON dynstat_uvel_sd              =   2.4343495437366E-04
(PID.TID 0000.0001) %MON dynstat_uvel_del2            =   4.2294738270513E-07
(PID.TID 0000.0001) %MON dynstat_vvel_max             =   7.8660394905263E-03
(PID.TID 0000.0001) %MON dynstat_vvel_min             =  -2.5205085104796E-03
(PID.TID 0000.0001) %MON dynstat_vvel_mean            =  -5.5111157711001E-08
(PID.TID 0000.0001) %MON dynstat_vvel_sd              =   1.4606571002336E-04
(PID.TID 0000.0001) %MON dynstat_vvel_del2            =   4.0439496482872E-07
(PID.TID 0000.0001) %MON dynstat_wvel_max             =   3.3260676703024E-04
(PID.TID 0000.0001) %MON dynstat_wvel_min             =  -3.2250157700186E-04
(PID.TID 0000.0001) %MON dynstat_wvel_mean            =   1.6834917109868E-10
(PID.TID 0000.0001) %MON dynstat_wvel_sd              =   1.1049541668888E-05
(PID.TID 0000.0001) %MON dynstat_wvel_del2            =   4.7080777033892E-08
(PID.TID 0000.0001) %MON dynstat_theta_max            =   1.2000000000000E+00
(PID.TID 0000.0001) %MON dynstat_theta_min            =  -1.0000000000000E+00
(PID.TID 0000.0001) %MON dynstat_theta_mean           =   5.6535087589937E-01
(PID.TID 0000.0001) %MON dynstat_theta_sd             =   8.4902978124562E-01
(PID.TID 0000.0001) %MON dynstat_theta_del2           =   1.1305740459723E-06
(PID.TID 0000.0001) %MON dynstat_salt_max             =   3.4700000000000E+01
(PID.TID 0000.0001) %MON dynstat_salt_min             =   3.4000000000000E+01
(PID.TID 0000.0001) %MON dynstat_salt_mean            =   3.4498054051282E+01
(PID.TID 0000.0001) %MON dynstat_salt_sd              =   2.7014612806123E-01
(PID.TID 0000.0001) %MON dynstat_salt_del2            =   4.4000645695152E-07
(PID.TID 0000.0001) %MON advcfl_uvel_max              =   8.8745100623715E-04
(PID.TID 0000.0001) %MON advcfl_vvel_max              =   7.8660394905263E-04
(PID.TID 0000.0001) %MON advcfl_wvel_max              =   1.6630338351512E-03
(PID.TID 0000.0001) %MON advcfl_W_hf_max              =   1.6630338351512E-03
(PID.TID 0000.0001) %MON pe_b_mean                    =  -6.8262023825809E-01
(PID.TID 0000.0001) %MON ke_max                       =   2.4239410689758E-05
(PID.TID 0000.0001) %MON ke_mean                      =   3.9740549354965E-08
(PID.TID 0000.0001) %MON ke_vol                       =   4.6182936228002E+12
(PID.TID 0000.0001) // =======================================================
(PID.TID 0000.0001) // End MONITOR dynamic field statistics
(PID.TID 0000.0001) // =======================================================
(PID.TID 0000.0001) // =======================================================
(PID.TID 0000.0001) // Begin OBCS MONITOR field statistics
(PID.TID 0000.0001) // =======================================================
(PID.TID 0000.0001) %MON obc_N_vVel_max               =  -6.8107792842789E-08
(PID.TID 0000.0001) %MON obc_N_vVel_min               =  -6.8107792842791E-08
(PID.TID 0000.0001) %MON obc_N_vVel_mean              =  -6.8107792842789E-08
(PID.TID 0000.0001) %MON obc_N_vVel_sd                =   1.1715878008432E-14
(PID.TID 0000.0001) %MON obc_N_vVel_Int               =  -4.4951143276241E+00
(PID.TID 0000.0001) // =======================================================
(PID.TID 0000.0001) // End OBCS MONITOR field statistics
(PID.TID 0000.0001) // =======================================================
 cg2d: Sum(rhs),rhsMax =   3.01118606259452E+00  4.53048441223365E+02
(PID.TID 0000.0001)      cg2d_init_res =   1.50304862855219E-06
(PID.TID 0000.0001)      cg2d_iters(min,last) =      -1      71
(PID.TID 0000.0001)      cg2d_last_res =   9.68052044516817E-12
(PID.TID 0000.0001) // =======================================================
(PID.TID 0000.0001) // Begin MONITOR dynamic field statistics
(PID.TID 0000.0001) // =======================================================
(PID.TID 0000.0001) %MON time_tsnumber                =                   682
(PID.TID 0000.0001) %MON time_secondsf                =   6.8200000000000E+04
(PID.TID 0000.0001) %MON dynstat_eta_max              =   5.7973644133188E+00
(PID.TID 0000.0001) %MON dynstat_eta_min              =  -1.4175116781254E+01
(PID.TID 0000.0001) %MON dynstat_eta_mean             =  -2.5263206516518E+00
(PID.TID 0000.0001) %MON dynstat_eta_sd               =   4.9417396487207E+00
(PID.TID 0000.0001) %MON dynstat_eta_del2             =   1.9058177860991E-01
(PID.TID 0000.0001) %MON dynstat_uvel_max             =   2.8649377275638E-03
(PID.TID 0000.0001) %MON dynstat_uvel_min             =  -8.9005052265811E-03
(PID.TID 0000.0001) %MON dynstat_uvel_mean            =  -1.2210488198209E-09
(PID.TID 0000.0001) %MON dynstat_uvel_sd              =   2.4397428947725E-04
(PID.TID 0000.0001) %MON dynstat_uvel_del2            =   4.2382891440616E-07
(PID.TID 0000.0001) %MON dynstat_vvel_max             =   7.8829646367704E-03
(PID.TID 0000.0001) %MON dynstat_vvel_min             =  -2.5279893804120E-03
(PID.TID 0000.0001) %MON dynstat_vvel_mean            =  -5.4763858076222E-08
(PID.TID 0000.0001) %MON dynstat_vvel_sd              =   1.4635452612244E-04
(PID.TID 0000.0001) %MON dynstat_vvel_del2            =   4.0528137766082E-07
(PID.TID 0000.0001) %MON dynstat_wvel_max             =   3.3374650260604E-04
(PID.TID 0000.0001) %MON dynstat_wvel_min             =  -3.2358192568269E-04
(PID.TID 0000.0001) %MON dynstat_wvel_mean            =   1.6886629724970E-10
(PID.TID 0000.0001) %MON dynstat_wvel_sd              =   1.1107308393458E-05
(PID.TID 0000.0001) %MON dynstat_wvel_del2            =   4.7535761892385E-08
(PID.TID 0000.0001) %MON dynstat_theta_max            =   1.2000000000000E+00
(PID.TID 0000.0001) %MON dynstat_theta_min            =  -1.0000000000000E+00
(PID.TID 0000.0001) %MON dynstat_theta_mean           =   5.6535057684010E-01
(PID.TID 0000.0001) %MON dynstat_theta_sd             =   8.4902967976145E-01
(PID.TID 0000.0001) %MON dynstat_theta_del2           =   1.1323089781838E-06
(PID.TID 0000.0001) %MON dynstat_salt_max             =   3.4700000000000E+01
(PID.TID 0000.0001) %MON dynstat_salt_min             =   3.4000000000000E+01
(PID.TID 0000.0001) %MON dynstat_salt_mean            =   3.4498053932458E+01
(PID.TID 0000.0001) %MON dynstat_salt_sd              =   2.7014609233184E-01
(PID.TID 0000.0001) %MON dynstat_salt_del2            =   4.4077174570372E-07
(PID.TID 0000.0001) %MON advcfl_uvel_max              =   8.9005052265811E-04
(PID.TID 0000.0001) %MON advcfl_vvel_max              =   7.8829646367704E-04
(PID.TID 0000.0001) %MON advcfl_wvel_max              =   1.6687325130302E-03
(PID.TID 0000.0001) %MON advcfl_W_hf_max              =   1.6687325130302E-03
(PID.TID 0000.0001) %MON pe_b_mean                    =  -6.8261947151533E-01
(PID.TID 0000.0001) %MON ke_max                       =   2.4380453369509E-05
(PID.TID 0000.0001) %MON ke_mean                      =   3.9911743484258E-08
(PID.TID 0000.0001) %MON ke_vol                       =   4.6182936390555E+12
(PID.TID 0000.0001) // =======================================================
(PID.TID 0000.0001) // End MONITOR dynamic field statistics
(PID.TID 0000.0001) // =======================================================
(PID.TID 0000.0001) // =======================================================
(PID.TID 0000.0001) // Begin OBCS MONITOR field statistics
(PID.TID 0000.0001) // =======================================================
(PID.TID 0000.0001) %MON obc_N_vVel_max               =  -6.7838970073998E-08
(PID.TID 0000.0001) %MON obc_N_vVel_min               =  -6.7838970073998E-08
(PID.TID 0000.0001) %MON obc_N_vVel_mean              =  -6.7838970073998E-08
(PID.TID 0000.0001) %MON obc_N_vVel_sd                =  -5.1275958839366E-29
(PID.TID 0000.0001) %MON obc_N_vVel_Int               =  -4.4773720248839E+00
(PID.TID 0000.0001) // =======================================================
(PID.TID 0000.0001) // End OBCS MONITOR field statistics
(PID.TID 0000.0001) // =======================================================
 cg2d: Sum(rhs),rhsMax =   3.01118285747577E+00  4.53048431592993E+02
(PID.TID 0000.0001)      cg2d_init_res =   1.50833323393112E-06
(PID.TID 0000.0001)      cg2d_iters(min,last) =      -1      71
(PID.TID 0000.0001)      cg2d_last_res =   9.71469345773266E-12
(PID.TID 0000.0001) // =======================================================
(PID.TID 0000.0001) // Begin MONITOR dynamic field statistics
(PID.TID 0000.0001) // =======================================================
(PID.TID 0000.0001) %MON time_tsnumber                =                   683
(PID.TID 0000.0001) %MON time_secondsf                =   6.8300000000000E+04
(PID.TID 0000.0001) %MON dynstat_eta_max              =   5.7973671280982E+00
(PID.TID 0000.0001) %MON dynstat_eta_min              =  -1.4175112236979E+01
(PID.TID 0000.0001) %MON dynstat_eta_mean             =  -2.5263179089243E+00
(PID.TID 0000.0001) %MON dynstat_eta_sd               =   4.9417387987265E+00
(PID.TID 0000.0001) %MON dynstat_eta_del2             =   1.9058178372757E-01
(PID.TID 0000.0001) %MON dynstat_uvel_max             =   2.8697302808869E-03
(PID.TID 0000.0001) %MON dynstat_uvel_min             =  -8.9265623764083E-03
(PID.TID 0000.0001) %MON dynstat_uvel_mean            =  -1.2206975570535E-09
(PID.TID 0000.0001) %MON dynstat_uvel_sd              =   2.4451607907183E-04
(PID.TID 0000.0001) %MON dynstat_uvel_del2            =   4.2471335486197E-07
(PID.TID 0000.0001) %MON dynstat_vvel_max             =   7.8999157987687E-03
(PID.TID 0000.0001) %MON dynstat_vvel_min             =  -2.5354813033207E-03
(PID.TID 0000.0001) %MON dynstat_vvel_mean            =  -5.4376431999965E-08
(PID.TID 0000.0001) %MON dynstat_vvel_sd              =   1.4663172769651E-04
(PID.TID 0000.0001) %MON dynstat_vvel_del2            =   4.0606014880703E-07
(PID.TID 0000.0001) %MON dynstat_wvel_max             =   3.3488875003880E-04
(PID.TID 0000.0001) %MON dynstat_wvel_min             =  -3.2466648920044E-04
(PID.TID 0000.0001) %MON dynstat_wvel_mean            =   1.6931853046757E-10
(PID.TID 0000.0001) %MON dynstat_wvel_sd              =   1.1118352063294E-05
(PID.TID 0000.0001) %MON dynstat_wvel_del2            =   4.7707387065393E-08
(PID.TID 0000.0001) %MON dynstat_theta_max            =   1.2000000000000E+00
(PID.TID 0000.0001) %MON dynstat_theta_min            =  -1.0000000000000E+00
(PID.TID 0000.0001) %MON dynstat_theta_mean           =   5.6535027752258E-01
(PID.TID 0000.0001) %MON dynstat_theta_sd             =   8.4902957798076E-01
(PID.TID 0000.0001) %MON dynstat_theta_del2           =   1.1341760712987E-06
(PID.TID 0000.0001) %MON dynstat_salt_max             =   3.4700000000000E+01
(PID.TID 0000.0001) %MON dynstat_salt_min             =   3.4000000000000E+01
(PID.TID 0000.0001) %MON dynstat_salt_mean            =   3.4498053813521E+01
(PID.TID 0000.0001) %MON dynstat_salt_sd              =   2.7014605648963E-01
(PID.TID 0000.0001) %MON dynstat_salt_del2            =   4.4157207612790E-07
(PID.TID 0000.0001) %MON advcfl_uvel_max              =   8.9265623764083E-04
(PID.TID 0000.0001) %MON advcfl_vvel_max              =   7.8999157987687E-04
(PID.TID 0000.0001) %MON advcfl_wvel_max              =   1.6744437501940E-03
(PID.TID 0000.0001) %MON advcfl_W_hf_max              =   1.6744437501940E-03
(PID.TID 0000.0001) %MON pe_b_mean                    =  -6.8261870376702E-01
(PID.TID 0000.0001) %MON ke_max                       =   2.4522253825626E-05
(PID.TID 0000.0001) %MON ke_mean                      =   4.0082192247186E-08
(PID.TID 0000.0001) %MON ke_vol                       =   4.6182936553292E+12
(PID.TID 0000.0001) // =======================================================
(PID.TID 0000.0001) // End MONITOR dynamic field statistics
(PID.TID 0000.0001) // =======================================================
(PID.TID 0000.0001) // =======================================================
(PID.TID 0000.0001) // Begin OBCS MONITOR field statistics
(PID.TID 0000.0001) // =======================================================
(PID.TID 0000.0001) %MON obc_N_vVel_max               =  -6.7526878323251E-08
(PID.TID 0000.0001) %MON obc_N_vVel_min               =  -6.7526878323252E-08
(PID.TID 0000.0001) %MON obc_N_vVel_mean              =  -6.7526878323252E-08
(PID.TID 0000.0001) %MON obc_N_vVel_sd                =  -1.6329420738075E-28
(PID.TID 0000.0001) %MON obc_N_vVel_Int               =  -4.4567739693346E+00
(PID.TID 0000.0001) // =======================================================
(PID.TID 0000.0001) // End OBCS MONITOR field statistics
(PID.TID 0000.0001) // =======================================================
 cg2d: Sum(rhs),rhsMax =   3.01117964861920E+00  4.53048421981916E+02
(PID.TID 0000.0001)      cg2d_init_res =   1.50997661340134E-06
(PID.TID 0000.0001)      cg2d_iters(min,last) =      -1      71
(PID.TID 0000.0001)      cg2d_last_res =   9.74994020308852E-12
(PID.TID 0000.0001) // =======================================================
(PID.TID 0000.0001) // Begin MONITOR dynamic field statistics
(PID.TID 0000.0001) // =======================================================
(PID.TID 0000.0001) %MON time_tsnumber                =                   684
(PID.TID 0000.0001) %MON time_secondsf                =   6.8400000000000E+04
(PID.TID 0000.0001) %MON dynstat_eta_max              =   5.7973698402109E+00
(PID.TID 0000.0001) %MON dynstat_eta_min              =  -1.4175107696909E+01
(PID.TID 0000.0001) %MON dynstat_eta_mean             =  -2.5263151631685E+00
(PID.TID 0000.0001) %MON dynstat_eta_sd               =   4.9417379478865E+00
(PID.TID 0000.0001) %MON dynstat_eta_del2             =   1.9058178885480E-01
(PID.TID 0000.0001) %MON dynstat_uvel_max             =   2.8745288541003E-03
(PID.TID 0000.0001) %MON dynstat_uvel_min             =  -8.9526816124863E-03
(PID.TID 0000.0001) %MON dynstat_uvel_mean            =  -1.2199138626175E-09
(PID.TID 0000.0001) %MON dynstat_uvel_sd              =   2.4506032701102E-04
(PID.TID 0000.0001) %MON dynstat_uvel_del2            =   4.2560065867571E-07
(PID.TID 0000.0001) %MON dynstat_vvel_max             =   7.9168930062985E-03
(PID.TID 0000.0001) %MON dynstat_vvel_min             =  -2.5429843078610E-03
(PID.TID 0000.0001) %MON dynstat_vvel_mean            =  -5.3959929282342E-08
(PID.TID 0000.0001) %MON dynstat_vvel_sd              =   1.4689726366270E-04
(PID.TID 0000.0001) %MON dynstat_vvel_del2            =   4.0673146111143E-07
(PID.TID 0000.0001) %MON dynstat_wvel_max             =   3.3603351571723E-04
(PID.TID 0000.0001) %MON dynstat_wvel_min             =  -3.2575528020310E-04
(PID.TID 0000.0001) %MON dynstat_wvel_mean            =   1.6969718098418E-10
(PID.TID 0000.0001) %MON dynstat_wvel_sd              =   1.1082508024788E-05
(PID.TID 0000.0001) %MON dynstat_wvel_del2            =   4.7586305949700E-08
(PID.TID 0000.0001) %MON dynstat_theta_max            =   1.2000000000000E+00
(PID.TID 0000.0001) %MON dynstat_theta_min            =  -1.0000000000000E+00
(PID.TID 0000.0001) %MON dynstat_theta_mean           =   5.6534997794965E-01
(PID.TID 0000.0001) %MON dynstat_theta_sd             =   8.4902947590561E-01
(PID.TID 0000.0001) %MON dynstat_theta_del2           =   1.1361777951975E-06
(PID.TID 0000.0001) %MON dynstat_salt_max             =   3.4700000000000E+01
(PID.TID 0000.0001) %MON dynstat_salt_min             =   3.4000000000000E+01
(PID.TID 0000.0001) %MON dynstat_salt_mean            =   3.4498053694471E+01
(PID.TID 0000.0001) %MON dynstat_salt_sd              =   2.7014602053494E-01
(PID.TID 0000.0001) %MON dynstat_salt_del2            =   4.4240808008891E-07
(PID.TID 0000.0001) %MON advcfl_uvel_max              =   8.9526816124863E-04
(PID.TID 0000.0001) %MON advcfl_vvel_max              =   7.9168930062985E-04
(PID.TID 0000.0001) %MON advcfl_wvel_max              =   1.6801675785862E-03
(PID.TID 0000.0001) %MON advcfl_W_hf_max              =   1.6801675785862E-03
(PID.TID 0000.0001) %MON pe_b_mean                    =  -6.8261793501444E-01
(PID.TID 0000.0001) %MON ke_max                       =   2.4664815550889E-05
(PID.TID 0000.0001) %MON ke_mean                      =   4.0251883323386E-08
(PID.TID 0000.0001) %MON ke_vol                       =   4.6182936716210E+12
(PID.TID 0000.0001) // =======================================================
(PID.TID 0000.0001) // End MONITOR dynamic field statistics
(PID.TID 0000.0001) // =======================================================
(PID.TID 0000.0001) // =======================================================
(PID.TID 0000.0001) // Begin OBCS MONITOR field statistics
(PID.TID 0000.0001) // =======================================================
(PID.TID 0000.0001) %MON obc_N_vVel_max               =  -6.7180889829627E-08
(PID.TID 0000.0001) %MON obc_N_vVel_min               =  -6.7180889829629E-08
(PID.TID 0000.0001) %MON obc_N_vVel_mean              =  -6.7180889829629E-08
(PID.TID 0000.0001) %MON obc_N_vVel_sd                =  -1.8617117363216E-28
(PID.TID 0000.0001) %MON obc_N_vVel_Int               =  -4.4339387287555E+00
(PID.TID 0000.0001) // =======================================================
(PID.TID 0000.0001) // End OBCS MONITOR field statistics
(PID.TID 0000.0001) // =======================================================
 cg2d: Sum(rhs),rhsMax =   3.01117643605002E+00  4.53048412388544E+02
(PID.TID 0000.0001)      cg2d_init_res =   1.50801800265443E-06
(PID.TID 0000.0001)      cg2d_iters(min,last) =      -1      71
(PID.TID 0000.0001)      cg2d_last_res =   9.78562356688220E-12
(PID.TID 0000.0001) // =======================================================
(PID.TID 0000.0001) // Begin MONITOR dynamic field statistics
(PID.TID 0000.0001) // =======================================================
(PID.TID 0000.0001) %MON time_tsnumber                =                   685
(PID.TID 0000.0001) %MON time_secondsf                =   6.8500000000000E+04
(PID.TID 0000.0001) %MON dynstat_eta_max              =   5.7973725497054E+00
(PID.TID 0000.0001) %MON dynstat_eta_min              =  -1.4175103160927E+01
(PID.TID 0000.0001) %MON dynstat_eta_mean             =  -2.5263124143968E+00
(PID.TID 0000.0001) %MON dynstat_eta_sd               =   4.9417370961956E+00
(PID.TID 0000.0001) %MON dynstat_eta_del2             =   1.9058179399157E-01
(PID.TID 0000.0001) %MON dynstat_uvel_max             =   2.8793334079396E-03
(PID.TID 0000.0001) %MON dynstat_uvel_min             =  -8.9788630349679E-03
(PID.TID 0000.0001) %MON dynstat_uvel_mean            =  -1.2186639633376E-09
(PID.TID 0000.0001) %MON dynstat_uvel_sd              =   2.4560703554977E-04
(PID.TID 0000.0001) %MON dynstat_uvel_del2            =   4.2649076596672E-07
(PID.TID 0000.0001) %MON dynstat_vvel_max             =   7.9338962883944E-03
(PID.TID 0000.0001) %MON dynstat_vvel_min             =  -2.5504984229769E-03
(PID.TID 0000.0001) %MON dynstat_vvel_mean            =  -5.3526171161917E-08
(PID.TID 0000.0001) %MON dynstat_vvel_sd              =   1.4715209152934E-04
(PID.TID 0000.0001) %MON dynstat_vvel_del2            =   4.0730390917346E-07
(PID.TID 0000.0001) %MON dynstat_wvel_max             =   3.3718080604083E-04
(PID.TID 0000.0001) %MON dynstat_wvel_min             =  -3.2684831126923E-04
(PID.TID 0000.0001) %MON dynstat_wvel_mean            =   1.6999601255420E-10
(PID.TID 0000.0001) %MON dynstat_wvel_sd              =   1.1002675296200E-05
(PID.TID 0000.0001) %MON dynstat_wvel_del2            =   4.7181014515647E-08
(PID.TID 0000.0001) %MON dynstat_theta_max            =   1.2000000000000E+00
(PID.TID 0000.0001) %MON dynstat_theta_min            =  -1.0000000000000E+00
(PID.TID 0000.0001) %MON dynstat_theta_mean           =   5.6534967812190E-01
(PID.TID 0000.0001) %MON dynstat_theta_sd             =   8.4902937353772E-01
(PID.TID 0000.0001) %MON dynstat_theta_del2           =   1.1383063421048E-06
(PID.TID 0000.0001) %MON dynstat_salt_max             =   3.4700000000000E+01
(PID.TID 0000.0001) %MON dynstat_salt_min             =   3.4000000000000E+01
(PID.TID 0000.0001) %MON dynstat_salt_mean            =   3.4498053575309E+01
(PID.TID 0000.0001) %MON dynstat_salt_sd              =   2.7014598446854E-01
(PID.TID 0000.0001) %MON dynstat_salt_del2            =   4.4327771833809E-07
(PID.TID 0000.0001) %MON advcfl_uvel_max              =   8.9788630349679E-04
(PID.TID 0000.0001) %MON advcfl_vvel_max              =   7.9338962883944E-04
(PID.TID 0000.0001) %MON advcfl_wvel_max              =   1.6859040302041E-03
(PID.TID 0000.0001) %MON advcfl_W_hf_max              =   1.6859040302041E-03
(PID.TID 0000.0001) %MON pe_b_mean                    =  -6.8261716525645E-01
(PID.TID 0000.0001) %MON ke_max                       =   2.4808142047425E-05
(PID.TID 0000.0001) %MON ke_mean                      =   4.0420952796951E-08
(PID.TID 0000.0001) %MON ke_vol                       =   4.6182936879308E+12
(PID.TID 0000.0001) // =======================================================
(PID.TID 0000.0001) // End MONITOR dynamic field statistics
(PID.TID 0000.0001) // =======================================================
(PID.TID 0000.0001) // =======================================================
(PID.TID 0000.0001) // Begin OBCS MONITOR field statistics
(PID.TID 0000.0001) // =======================================================
(PID.TID 0000.0001) %MON obc_N_vVel_max               =  -6.6811319613333E-08
(PID.TID 0000.0001) %MON obc_N_vVel_min               =  -6.6811319613333E-08
(PID.TID 0000.0001) %MON obc_N_vVel_mean              =  -6.6811319613333E-08
(PID.TID 0000.0001) %MON obc_N_vVel_sd                =  -2.1378130531489E-28
(PID.TID 0000.0001) %MON obc_N_vVel_Int               =  -4.4095470944800E+00
(PID.TID 0000.0001) // =======================================================
(PID.TID 0000.0001) // End OBCS MONITOR field statistics
(PID.TID 0000.0001) // =======================================================
 cg2d: Sum(rhs),rhsMax =   3.01117321978049E+00  4.53048402811157E+02
(PID.TID 0000.0001)      cg2d_init_res =   1.50275485237277E-06
(PID.TID 0000.0001)      cg2d_iters(min,last) =      -1      71
(PID.TID 0000.0001)      cg2d_last_res =   9.82101994983347E-12
(PID.TID 0000.0001) // =======================================================
(PID.TID 0000.0001) // Begin MONITOR dynamic field statistics
(PID.TID 0000.0001) // =======================================================
(PID.TID 0000.0001) %MON time_tsnumber                =                   686
(PID.TID 0000.0001) %MON time_secondsf                =   6.8600000000000E+04
(PID.TID 0000.0001) %MON dynstat_eta_max              =   5.7973752566542E+00
(PID.TID 0000.0001) %MON dynstat_eta_min              =  -1.4175098628893E+01
(PID.TID 0000.0001) %MON dynstat_eta_mean             =  -2.5263096626098E+00
(PID.TID 0000.0001) %MON dynstat_eta_sd               =   4.9417362436462E+00
(PID.TID 0000.0001) %MON dynstat_eta_del2             =   1.9058179913794E-01
(PID.TID 0000.0001) %MON dynstat_uvel_max             =   2.8841439029179E-03
(PID.TID 0000.0001) %MON dynstat_uvel_min             =  -9.0051067435253E-03
(PID.TID 0000.0001) %MON dynstat_uvel_mean            =  -1.2169233256461E-09
(PID.TID 0000.0001) %MON dynstat_uvel_sd              =   2.4615620560041E-04
(PID.TID 0000.0001) %MON dynstat_uvel_del2            =   4.2738360555870E-07
(PID.TID 0000.0001) %MON dynstat_vvel_max             =   7.9509256734565E-03
(PID.TID 0000.0001) %MON dynstat_vvel_min             =  -2.5580236779152E-03
(PID.TID 0000.0001) %MON dynstat_vvel_mean            =  -5.3087354677450E-08
(PID.TID 0000.0001) %MON dynstat_vvel_sd              =   1.4739808644717E-04
(PID.TID 0000.0001) %MON dynstat_vvel_del2            =   4.0779374964143E-07
(PID.TID 0000.0001) %MON dynstat_wvel_max             =   3.3833062740891E-04
(PID.TID 0000.0001) %MON dynstat_wvel_min             =  -3.2794559481515E-04
(PID.TID 0000.0001) %MON dynstat_wvel_mean            =   1.7021173811983E-10
(PID.TID 0000.0001) %MON dynstat_wvel_sd              =   1.0884674676986E-05
(PID.TID 0000.0001) %MON dynstat_wvel_del2            =   4.6517541851975E-08
(PID.TID 0000.0001) %MON dynstat_theta_max            =   1.2000000000000E+00
(PID.TID 0000.0001) %MON dynstat_theta_min            =  -1.0000000000000E+00
(PID.TID 0000.0001) %MON dynstat_theta_mean           =   5.6534937803764E-01
(PID.TID 0000.0001) %MON dynstat_theta_sd             =   8.4902927087793E-01
(PID.TID 0000.0001) %MON dynstat_theta_del2           =   1.1405445759463E-06
(PID.TID 0000.0001) %MON dynstat_salt_max             =   3.4700000000000E+01
(PID.TID 0000.0001) %MON dynstat_salt_min             =   3.4000000000000E+01
(PID.TID 0000.0001) %MON dynstat_salt_mean            =   3.4498053456033E+01
(PID.TID 0000.0001) %MON dynstat_salt_sd              =   2.7014594829053E-01
(PID.TID 0000.0001) %MON dynstat_salt_del2            =   4.4417652616400E-07
(PID.TID 0000.0001) %MON advcfl_uvel_max              =   9.0051067435253E-04
(PID.TID 0000.0001) %MON advcfl_vvel_max              =   7.9509256734565E-04
(PID.TID 0000.0001) %MON advcfl_wvel_max              =   1.6916531370446E-03
(PID.TID 0000.0001) %MON advcfl_W_hf_max              =   1.6916531370446E-03
(PID.TID 0000.0001) %MON pe_b_mean                    =  -6.8261639448954E-01
(PID.TID 0000.0001) %MON ke_max                       =   2.4952236827292E-05
(PID.TID 0000.0001) %MON ke_mean                      =   4.0589673045506E-08
(PID.TID 0000.0001) %MON ke_vol                       =   4.6182937042585E+12
(PID.TID 0000.0001) // =======================================================
(PID.TID 0000.0001) // End MONITOR dynamic field statistics
(PID.TID 0000.0001) // =======================================================
(PID.TID 0000.0001) // =======================================================
(PID.TID 0000.0001) // Begin OBCS MONITOR field statistics
(PID.TID 0000.0001) // =======================================================
(PID.TID 0000.0001) %MON obc_N_vVel_max               =  -6.6429101753155E-08
(PID.TID 0000.0001) %MON obc_N_vVel_min               =  -6.6429101753157E-08
(PID.TID 0000.0001) %MON obc_N_vVel_mean              =  -6.6429101753155E-08
(PID.TID 0000.0001) %MON obc_N_vVel_sd                =   1.3469892657361E-14
(PID.TID 0000.0001) %MON obc_N_vVel_Int               =  -4.3843207157082E+00
(PID.TID 0000.0001) // =======================================================
(PID.TID 0000.0001) // End OBCS MONITOR field statistics
(PID.TID 0000.0001) // =======================================================
 cg2d: Sum(rhs),rhsMax =   3.01116999980692E+00  4.53048393247942E+02
(PID.TID 0000.0001)      cg2d_init_res =   1.49470865020297E-06
(PID.TID 0000.0001)      cg2d_iters(min,last) =      -1      71
(PID.TID 0000.0001)      cg2d_last_res =   9.85551654356853E-12
(PID.TID 0000.0001) // =======================================================
(PID.TID 0000.0001) // Begin MONITOR dynamic field statistics
(PID.TID 0000.0001) // =======================================================
(PID.TID 0000.0001) %MON time_tsnumber                =                   687
(PID.TID 0000.0001) %MON time_secondsf                =   6.8700000000000E+04
(PID.TID 0000.0001) %MON dynstat_eta_max              =   5.7973779611399E+00
(PID.TID 0000.0001) %MON dynstat_eta_min              =  -1.4175094100629E+01
(PID.TID 0000.0001) %MON dynstat_eta_mean             =  -2.5263069077943E+00
(PID.TID 0000.0001) %MON dynstat_eta_sd               =   4.9417353902254E+00
(PID.TID 0000.0001) %MON dynstat_eta_del2             =   1.9058180429391E-01
(PID.TID 0000.0001) %MON dynstat_uvel_max             =   2.8889602991455E-03
(PID.TID 0000.0001) %MON dynstat_uvel_min             =  -9.0314128375004E-03
(PID.TID 0000.0001) %MON dynstat_uvel_mean            =  -1.2146782470584E-09
(PID.TID 0000.0001) %MON dynstat_uvel_sd              =   2.4670783707093E-04
(PID.TID 0000.0001) %MON dynstat_uvel_del2            =   4.2827909903748E-07
(PID.TID 0000.0001) %MON dynstat_vvel_max             =   7.9679811891602E-03
(PID.TID 0000.0001) %MON dynstat_vvel_min             =  -2.5655601020889E-03
(PID.TID 0000.0001) %MON dynstat_vvel_mean            =  -5.2655643676743E-08
(PID.TID 0000.0001) %MON dynstat_vvel_sd              =   1.4763788167081E-04
(PID.TID 0000.0001) %MON dynstat_vvel_del2            =   4.0822358128937E-07
(PID.TID 0000.0001) %MON dynstat_wvel_max             =   3.3948298624288E-04
(PID.TID 0000.0001) %MON dynstat_wvel_min             =  -3.2904714314996E-04
(PID.TID 0000.0001) %MON dynstat_wvel_mean            =   1.7034381956989E-10
(PID.TID 0000.0001) %MON dynstat_wvel_sd              =   1.0736995109138E-05
(PID.TID 0000.0001) %MON dynstat_wvel_del2            =   4.5638860862666E-08
(PID.TID 0000.0001) %MON dynstat_theta_max            =   1.2000000000000E+00
(PID.TID 0000.0001) %MON dynstat_theta_min            =  -1.0000000000000E+00
(PID.TID 0000.0001) %MON dynstat_theta_mean           =   5.6534907769263E-01
(PID.TID 0000.0001) %MON dynstat_theta_sd             =   8.4902916793100E-01
(PID.TID 0000.0001) %MON dynstat_theta_del2           =   1.1428676081277E-06
(PID.TID 0000.0001) %MON dynstat_salt_max             =   3.4700000000000E+01
(PID.TID 0000.0001) %MON dynstat_salt_min             =   3.4000000000000E+01
(PID.TID 0000.0001) %MON dynstat_salt_mean            =   3.4498053336644E+01
(PID.TID 0000.0001) %MON dynstat_salt_sd              =   2.7014591200239E-01
(PID.TID 0000.0001) %MON dynstat_salt_del2            =   4.4509803347825E-07
(PID.TID 0000.0001) %MON advcfl_uvel_max              =   9.0314128375004E-04
(PID.TID 0000.0001) %MON advcfl_vvel_max              =   7.9679811891602E-04
(PID.TID 0000.0001) %MON advcfl_wvel_max              =   1.6974149312144E-03
(PID.TID 0000.0001) %MON advcfl_W_hf_max              =   1.6974149312144E-03
(PID.TID 0000.0001) %MON pe_b_mean                    =  -6.8261562270717E-01
(PID.TID 0000.0001) %MON ke_max                       =   2.5097103412919E-05
(PID.TID 0000.0001) %MON ke_mean                      =   4.0758430259870E-08
(PID.TID 0000.0001) %MON ke_vol                       =   4.6182937206041E+12
(PID.TID 0000.0001) // =======================================================
(PID.TID 0000.0001) // End MONITOR dynamic field statistics
(PID.TID 0000.0001) // =======================================================
(PID.TID 0000.0001) // =======================================================
(PID.TID 0000.0001) // Begin OBCS MONITOR field statistics
(PID.TID 0000.0001) // =======================================================
(PID.TID 0000.0001) %MON obc_N_vVel_max               =  -6.6045387378222E-08
(PID.TID 0000.0001) %MON obc_N_vVel_min               =  -6.6045387378222E-08
(PID.TID 0000.0001) %MON obc_N_vVel_mean              =  -6.6045387378222E-08
(PID.TID 0000.0001) %MON obc_N_vVel_sd                =  -5.5220263365471E-29
(PID.TID 0000.0001) %MON obc_N_vVel_Int               =  -4.3589955669626E+00
(PID.TID 0000.0001) // =======================================================
(PID.TID 0000.0001) // End OBCS MONITOR field statistics
(PID.TID 0000.0001) // =======================================================
 cg2d: Sum(rhs),rhsMax =   3.01116677611100E+00  4.53048383697055E+02
(PID.TID 0000.0001)      cg2d_init_res =   1.48462446700778E-06
(PID.TID 0000.0001)      cg2d_iters(min,last) =      -1      71
(PID.TID 0000.0001)      cg2d_last_res =   9.88853361258233E-12
(PID.TID 0000.0001) // =======================================================
(PID.TID 0000.0001) // Begin MONITOR dynamic field statistics
(PID.TID 0000.0001) // =======================================================
(PID.TID 0000.0001) %MON time_tsnumber                =                   688
(PID.TID 0000.0001) %MON time_secondsf                =   6.8800000000000E+04
(PID.TID 0000.0001) %MON dynstat_eta_max              =   5.7973806632818E+00
(PID.TID 0000.0001) %MON dynstat_eta_min              =  -1.4175089575935E+01
(PID.TID 0000.0001) %MON dynstat_eta_mean             =  -2.5263041499248E+00
(PID.TID 0000.0001) %MON dynstat_eta_sd               =   4.9417345359182E+00
(PID.TID 0000.0001) %MON dynstat_eta_del2             =   1.9058180945959E-01
(PID.TID 0000.0001) %MON dynstat_uvel_max             =   2.8937825565638E-03
(PID.TID 0000.0001) %MON dynstat_uvel_min             =  -9.0577814156960E-03
(PID.TID 0000.0001) %MON dynstat_uvel_mean            =  -1.2119275728370E-09
(PID.TID 0000.0001) %MON dynstat_uvel_sd              =   2.4726192926134E-04
(PID.TID 0000.0001) %MON dynstat_uvel_del2            =   4.2917716534959E-07
(PID.TID 0000.0001) %MON dynstat_vvel_max             =   7.9850628627915E-03
(PID.TID 0000.0001) %MON dynstat_vvel_min             =  -2.5731077250430E-03
(PID.TID 0000.0001) %MON dynstat_vvel_mean            =  -5.2242760965002E-08
(PID.TID 0000.0001) %MON dynstat_vvel_sd              =   1.4787465339346E-04
(PID.TID 0000.0001) %MON dynstat_vvel_del2            =   4.0862055049681E-07
(PID.TID 0000.0001) %MON dynstat_wvel_max             =   3.4063788895363E-04
(PID.TID 0000.0001) %MON dynstat_wvel_min             =  -3.3015296846179E-04
(PID.TID 0000.0001) %MON dynstat_wvel_mean            =   1.7039465077352E-10
(PID.TID 0000.0001) %MON dynstat_wvel_sd              =   1.0570398619221E-05
(PID.TID 0000.0001) %MON dynstat_wvel_del2            =   4.4603821747586E-08
(PID.TID 0000.0001) %MON dynstat_theta_max            =   1.2000000000000E+00
(PID.TID 0000.0001) %MON dynstat_theta_min            =  -1.0000000000000E+00
(PID.TID 0000.0001) %MON dynstat_theta_mean           =   5.6534877708037E-01
(PID.TID 0000.0001) %MON dynstat_theta_sd             =   8.4902906470236E-01
(PID.TID 0000.0001) %MON dynstat_theta_del2           =   1.1452450245935E-06
(PID.TID 0000.0001) %MON dynstat_salt_max             =   3.4700000000000E+01
(PID.TID 0000.0001) %MON dynstat_salt_min             =   3.4000000000000E+01
(PID.TID 0000.0001) %MON dynstat_salt_mean            =   3.4498053217137E+01
(PID.TID 0000.0001) %MON dynstat_salt_sd              =   2.7014587560571E-01
(PID.TID 0000.0001) %MON dynstat_salt_del2            =   4.4603434242093E-07
(PID.TID 0000.0001) %MON advcfl_uvel_max              =   9.0577814156960E-04
(PID.TID 0000.0001) %MON advcfl_vvel_max              =   7.9850628627915E-04
(PID.TID 0000.0001) %MON advcfl_wvel_max              =   1.7031894447681E-03
(PID.TID 0000.0001) %MON advcfl_W_hf_max              =   1.7031894447681E-03
(PID.TID 0000.0001) %MON pe_b_mean                    =  -6.8261484990034E-01
(PID.TID 0000.0001) %MON ke_max                       =   2.5242745336444E-05
(PID.TID 0000.0001) %MON ke_mean                      =   4.0927693465616E-08
(PID.TID 0000.0001) %MON ke_vol                       =   4.6182937369677E+12
(PID.TID 0000.0001) // =======================================================
(PID.TID 0000.0001) // End MONITOR dynamic field statistics
(PID.TID 0000.0001) // =======================================================
(PID.TID 0000.0001) // =======================================================
(PID.TID 0000.0001) // Begin OBCS MONITOR field statistics
(PID.TID 0000.0001) // =======================================================
(PID.TID 0000.0001) %MON obc_N_vVel_max               =  -6.5671190505235E-08
(PID.TID 0000.0001) %MON obc_N_vVel_min               =  -6.5671190505235E-08
(PID.TID 0000.0001) %MON obc_N_vVel_mean              =  -6.5671190505235E-08
(PID.TID 0000.0001) %MON obc_N_vVel_sd                =   5.4750994875343E-15
(PID.TID 0000.0001) %MON obc_N_vVel_Int               =  -4.3342985733455E+00
(PID.TID 0000.0001) // =======================================================
(PID.TID 0000.0001) // End OBCS MONITOR field statistics
(PID.TID 0000.0001) // =======================================================
 cg2d: Sum(rhs),rhsMax =   3.01116354865937E+00  4.53048374156702E+02
(PID.TID 0000.0001)      cg2d_init_res =   1.47340372347325E-06
(PID.TID 0000.0001)      cg2d_iters(min,last) =      -1      71
(PID.TID 0000.0001)      cg2d_last_res =   9.91979194346666E-12
(PID.TID 0000.0001) // =======================================================
(PID.TID 0000.0001) // Begin MONITOR dynamic field statistics
(PID.TID 0000.0001) // =======================================================
(PID.TID 0000.0001) %MON time_tsnumber                =                   689
(PID.TID 0000.0001) %MON time_secondsf                =   6.8900000000000E+04
(PID.TID 0000.0001) %MON dynstat_eta_max              =   5.7973833632042E+00
(PID.TID 0000.0001) %MON dynstat_eta_min              =  -1.4175085054591E+01
(PID.TID 0000.0001) %MON dynstat_eta_mean             =  -2.5263013889631E+00
(PID.TID 0000.0001) %MON dynstat_eta_sd               =   4.9417336807049E+00
(PID.TID 0000.0001) %MON dynstat_eta_del2             =   1.9058181463506E-01
(PID.TID 0000.0001) %MON dynstat_uvel_max             =   2.8986106346256E-03
(PID.TID 0000.0001) %MON dynstat_uvel_min             =  -9.0842125766057E-03
(PID.TID 0000.0001) %MON dynstat_uvel_mean            =  -1.2086923598262E-09
(PID.TID 0000.0001) %MON dynstat_uvel_sd              =   2.4781848129520E-04
(PID.TID 0000.0001) %MON dynstat_uvel_del2            =   4.3007772555304E-07
(PID.TID 0000.0001) %MON dynstat_vvel_max             =   8.0021707209912E-03
(PID.TID 0000.0001) %MON dynstat_vvel_min             =  -2.5806665765247E-03
(PID.TID 0000.0001) %MON dynstat_vvel_mean            =  -5.1859599798387E-08
(PID.TID 0000.0001) %MON dynstat_vvel_sd              =   1.4811186702483E-04
(PID.TID 0000.0001) %MON dynstat_vvel_del2            =   4.0901421318535E-07
(PID.TID 0000.0001) %MON dynstat_wvel_max             =   3.4179534197912E-04
(PID.TID 0000.0001) %MON dynstat_wvel_min             =  -3.3126308282674E-04
(PID.TID 0000.0001) %MON dynstat_wvel_mean            =   1.7036898559371E-10
(PID.TID 0000.0001) %MON dynstat_wvel_sd              =   1.0397345123303E-05
(PID.TID 0000.0001) %MON dynstat_wvel_del2            =   4.3485258844465E-08
(PID.TID 0000.0001) %MON dynstat_theta_max            =   1.2000000000000E+00
(PID.TID 0000.0001) %MON dynstat_theta_min            =  -1.0000000000000E+00
(PID.TID 0000.0001) %MON dynstat_theta_mean           =   5.6534847619209E-01
(PID.TID 0000.0001) %MON dynstat_theta_sd             =   8.4902896119873E-01
(PID.TID 0000.0001) %MON dynstat_theta_del2           =   1.1476436036283E-06
(PID.TID 0000.0001) %MON dynstat_salt_max             =   3.4700000000000E+01
(PID.TID 0000.0001) %MON dynstat_salt_min             =   3.4000000000000E+01
(PID.TID 0000.0001) %MON dynstat_salt_mean            =   3.4498053097512E+01
(PID.TID 0000.0001) %MON dynstat_salt_sd              =   2.7014583910267E-01
(PID.TID 0000.0001) %MON dynstat_salt_del2            =   4.4697683916338E-07
(PID.TID 0000.0001) %MON advcfl_uvel_max              =   9.0842125766057E-04
(PID.TID 0000.0001) %MON advcfl_vvel_max              =   8.0021707209912E-04
(PID.TID 0000.0001) %MON advcfl_wvel_max              =   1.7089767098956E-03
(PID.TID 0000.0001) %MON advcfl_W_hf_max              =   1.7089767098956E-03
(PID.TID 0000.0001) %MON pe_b_mean                    =  -6.8261407605755E-01
(PID.TID 0000.0001) %MON ke_max                       =   2.5389166141002E-05
(PID.TID 0000.0001) %MON ke_mean                      =   4.1097977561286E-08
(PID.TID 0000.0001) %MON ke_vol                       =   4.6182937533494E+12
(PID.TID 0000.0001) // =======================================================
(PID.TID 0000.0001) // End MONITOR dynamic field statistics
(PID.TID 0000.0001) // =======================================================
(PID.TID 0000.0001) // =======================================================
(PID.TID 0000.0001) // Begin OBCS MONITOR field statistics
(PID.TID 0000.0001) // =======================================================
(PID.TID 0000.0001) %MON obc_N_vVel_max               =  -6.5316988955067E-08
(PID.TID 0000.0001) %MON obc_N_vVel_min               =  -6.5316988955067E-08
(PID.TID 0000.0001) %MON obc_N_vVel_mean              =  -6.5316988955067E-08
(PID.TID 0000.0001) %MON obc_N_vVel_sd                =  -4.8120515218482E-29
(PID.TID 0000.0001) %MON obc_N_vVel_Int               =  -4.3109212710344E+00
(PID.TID 0000.0001) // =======================================================
(PID.TID 0000.0001) // End OBCS MONITOR field statistics
(PID.TID 0000.0001) // =======================================================
 cg2d: Sum(rhs),rhsMax =   3.01116031740643E+00  4.53048364625141E+02
(PID.TID 0000.0001)      cg2d_init_res =   1.46204835252228E-06
(PID.TID 0000.0001)      cg2d_iters(min,last) =      -1      71
(PID.TID 0000.0001)      cg2d_last_res =   9.94883001782642E-12
(PID.TID 0000.0001) // =======================================================
(PID.TID 0000.0001) // Begin MONITOR dynamic field statistics
(PID.TID 0000.0001) // =======================================================
(PID.TID 0000.0001) %MON time_tsnumber                =                   690
(PID.TID 0000.0001) %MON time_secondsf                =   6.9000000000000E+04
(PID.TID 0000.0001) %MON dynstat_eta_max              =   5.7973860610594E+00
(PID.TID 0000.0001) %MON dynstat_eta_min              =  -1.4175080536342E+01
(PID.TID 0000.0001) %MON dynstat_eta_mean             =  -2.5262986248613E+00
(PID.TID 0000.0001) %MON dynstat_eta_sd               =   4.9417328245643E+00
(PID.TID 0000.0001) %MON dynstat_eta_del2             =   1.9058181982038E-01
(PID.TID 0000.0001) %MON dynstat_uvel_max             =   2.9034444927252E-03
(PID.TID 0000.0001) %MON dynstat_uvel_min             =  -9.1107064183200E-03
(PID.TID 0000.0001) %MON dynstat_uvel_mean            =  -1.2050136940930E-09
(PID.TID 0000.0001) %MON dynstat_uvel_sd              =   2.4837749255869E-04
(PID.TID 0000.0001) %MON dynstat_uvel_del2            =   4.3098070744588E-07
(PID.TID 0000.0001) %MON dynstat_vvel_max             =   8.0193047902160E-03
(PID.TID 0000.0001) %MON dynstat_vvel_min             =  -2.5882366862726E-03
(PID.TID 0000.0001) %MON dynstat_vvel_mean            =  -5.1515877109022E-08
(PID.TID 0000.0001) %MON dynstat_vvel_sd              =   1.4835300482346E-04
(PID.TID 0000.0001) %MON dynstat_vvel_del2            =   4.0943421276242E-07
(PID.TID 0000.0001) %MON dynstat_wvel_max             =   3.4295535175727E-04
(PID.TID 0000.0001) %MON dynstat_wvel_min             =  -3.3237749823322E-04
(PID.TID 0000.0001) %MON dynstat_wvel_mean            =   1.7027430526773E-10
(PID.TID 0000.0001) %MON dynstat_wvel_sd              =   1.0231201688723E-05
(PID.TID 0000.0001) %MON dynstat_wvel_del2            =   4.2366767528203E-08
(PID.TID 0000.0001) %MON dynstat_theta_max            =   1.2000000000000E+00
(PID.TID 0000.0001) %MON dynstat_theta_min            =  -1.0000000000000E+00
(PID.TID 0000.0001) %MON dynstat_theta_mean           =   5.6534817501708E-01
(PID.TID 0000.0001) %MON dynstat_theta_sd             =   8.4902885741866E-01
(PID.TID 0000.0001) %MON dynstat_theta_del2           =   1.1500301347305E-06
(PID.TID 0000.0001) %MON dynstat_salt_max             =   3.4700000000000E+01
(PID.TID 0000.0001) %MON dynstat_salt_min             =   3.4000000000000E+01
(PID.TID 0000.0001) %MON dynstat_salt_mean            =   3.4498052977763E+01
(PID.TID 0000.0001) %MON dynstat_salt_sd              =   2.7014580249268E-01
(PID.TID 0000.0001) %MON dynstat_salt_del2            =   4.4791688050667E-07
(PID.TID 0000.0001) %MON advcfl_uvel_max              =   9.1107064183200E-04
(PID.TID 0000.0001) %MON advcfl_vvel_max              =   8.0193047902160E-04
(PID.TID 0000.0001) %MON advcfl_wvel_max              =   1.7147767587864E-03
(PID.TID 0000.0001) %MON advcfl_W_hf_max              =   1.7147767587864E-03
(PID.TID 0000.0001) %MON pe_b_mean                    =  -6.8261330116554E-01
(PID.TID 0000.0001) %MON ke_max                       =   2.5536369380137E-05
(PID.TID 0000.0001) %MON ke_mean                      =   4.1269803322427E-08
(PID.TID 0000.0001) %MON ke_vol                       =   4.6182937697496E+12
(PID.TID 0000.0001) // =======================================================
(PID.TID 0000.0001) // End MONITOR dynamic field statistics
(PID.TID 0000.0001) // =======================================================
(PID.TID 0000.0001) // =======================================================
(PID.TID 0000.0001) // Begin OBCS MONITOR field statistics
(PID.TID 0000.0001) // =======================================================
(PID.TID 0000.0001) %MON obc_N_vVel_max               =  -6.4992431255187E-08
(PID.TID 0000.0001) %MON obc_N_vVel_min               =  -6.4992431255189E-08
(PID.TID 0000.0001) %MON obc_N_vVel_mean              =  -6.4992431255187E-08
(PID.TID 0000.0001) %MON obc_N_vVel_sd                =   1.0165666657133E-14
(PID.TID 0000.0001) %MON obc_N_vVel_Int               =  -4.2895004628424E+00
(PID.TID 0000.0001) // =======================================================
(PID.TID 0000.0001) // End OBCS MONITOR field statistics
(PID.TID 0000.0001) // =======================================================
 cg2d: Sum(rhs),rhsMax =   3.01115708225050E+00  4.53048355107169E+02
(PID.TID 0000.0001)      cg2d_init_res =   1.45158046784937E-06
(PID.TID 0000.0001)      cg2d_iters(min,last) =      -1      71
(PID.TID 0000.0001)      cg2d_last_res =   9.97534158815022E-12
(PID.TID 0000.0001) // =======================================================
(PID.TID 0000.0001) // Begin MONITOR dynamic field statistics
(PID.TID 0000.0001) // =======================================================
(PID.TID 0000.0001) %MON time_tsnumber                =                   691
(PID.TID 0000.0001) %MON time_secondsf                =   6.9100000000000E+04
(PID.TID 0000.0001) %MON dynstat_eta_max              =   5.7973887570017E+00
(PID.TID 0000.0001) %MON dynstat_eta_min              =  -1.4175076020923E+01
(PID.TID 0000.0001) %MON dynstat_eta_mean             =  -2.5262958575609E+00
(PID.TID 0000.0001) %MON dynstat_eta_sd               =   4.9417319674721E+00
(PID.TID 0000.0001) %MON dynstat_eta_del2             =   1.9058182501554E-01
(PID.TID 0000.0001) %MON dynstat_uvel_max             =   2.9082840898873E-03
(PID.TID 0000.0001) %MON dynstat_uvel_min             =  -9.1372630384976E-03
(PID.TID 0000.0001) %MON dynstat_uvel_mean            =  -1.2009481735883E-09
(PID.TID 0000.0001) %MON dynstat_uvel_sd              =   2.4893896311844E-04
(PID.TID 0000.0001) %MON dynstat_uvel_del2            =   4.3188604975822E-07
(PID.TID 0000.0001) %MON dynstat_vvel_max             =   8.0364650965505E-03
(PID.TID 0000.0001) %MON dynstat_vvel_min             =  -2.5958180841537E-03
(PID.TID 0000.0001) %MON dynstat_vvel_mean            =  -5.1219836603201E-08
(PID.TID 0000.0001) %MON dynstat_vvel_sd              =   1.4860129617452E-04
(PID.TID 0000.0001) %MON dynstat_vvel_del2            =   4.0990795312233E-07
(PID.TID 0000.0001) %MON dynstat_wvel_max             =   3.4411792472046E-04
(PID.TID 0000.0001) %MON dynstat_wvel_min             =  -3.3349622655380E-04
(PID.TID 0000.0001) %MON dynstat_wvel_mean            =   1.7012011927522E-10
(PID.TID 0000.0001) %MON dynstat_wvel_sd              =   1.0085226392856E-05
(PID.TID 0000.0001) %MON dynstat_wvel_del2            =   4.1337576336030E-08
(PID.TID 0000.0001) %MON dynstat_theta_max            =   1.2000000000000E+00
(PID.TID 0000.0001) %MON dynstat_theta_min            =  -1.0000000000000E+00
(PID.TID 0000.0001) %MON dynstat_theta_mean           =   5.6534787354270E-01
(PID.TID 0000.0001) %MON dynstat_theta_sd             =   8.4902875336230E-01
(PID.TID 0000.0001) %MON dynstat_theta_del2           =   1.1523741235120E-06
(PID.TID 0000.0001) %MON dynstat_salt_max             =   3.4700000000000E+01
(PID.TID 0000.0001) %MON dynstat_salt_min             =   3.4000000000000E+01
(PID.TID 0000.0001) %MON dynstat_salt_mean            =   3.4498052857886E+01
(PID.TID 0000.0001) %MON dynstat_salt_sd              =   2.7014576577567E-01
(PID.TID 0000.0001) %MON dynstat_salt_del2            =   4.4884654637580E-07
(PID.TID 0000.0001) %MON advcfl_uvel_max              =   9.1372630384976E-04
(PID.TID 0000.0001) %MON advcfl_vvel_max              =   8.0364650965505E-04
(PID.TID 0000.0001) %MON advcfl_wvel_max              =   1.7205896236023E-03
(PID.TID 0000.0001) %MON advcfl_W_hf_max              =   1.7205896236023E-03
(PID.TID 0000.0001) %MON pe_b_mean                    =  -6.8261252520897E-01
(PID.TID 0000.0001) %MON ke_max                       =   2.5684358618032E-05
(PID.TID 0000.0001) %MON ke_mean                      =   4.1443657520744E-08
(PID.TID 0000.0001) %MON ke_vol                       =   4.6182937861683E+12
(PID.TID 0000.0001) // =======================================================
(PID.TID 0000.0001) // End MONITOR dynamic field statistics
(PID.TID 0000.0001) // =======================================================
(PID.TID 0000.0001) // =======================================================
(PID.TID 0000.0001) // Begin OBCS MONITOR field statistics
(PID.TID 0000.0001) // =======================================================
(PID.TID 0000.0001) %MON obc_N_vVel_max               =  -6.4705987485798E-08
(PID.TID 0000.0001) %MON obc_N_vVel_min               =  -6.4705987485800E-08
(PID.TID 0000.0001) %MON obc_N_vVel_mean              =  -6.4705987485800E-08
(PID.TID 0000.0001) %MON obc_N_vVel_sd                =  -2.4060257609241E-28
(PID.TID 0000.0001) %MON obc_N_vVel_Int               =  -4.2705951740628E+00
(PID.TID 0000.0001) // =======================================================
(PID.TID 0000.0001) // End OBCS MONITOR field statistics
(PID.TID 0000.0001) // =======================================================
 cg2d: Sum(rhs),rhsMax =   3.01115384305921E+00  4.53048345610785E+02
(PID.TID 0000.0001)      cg2d_init_res =   1.44298827105690E-06
(PID.TID 0000.0001)      cg2d_iters(min,last) =      -1      71
(PID.TID 0000.0001)      cg2d_last_res =   9.99883688363087E-12
(PID.TID 0000.0001) // =======================================================
(PID.TID 0000.0001) // Begin MONITOR dynamic field statistics
(PID.TID 0000.0001) // =======================================================
(PID.TID 0000.0001) %MON time_tsnumber                =                   692
(PID.TID 0000.0001) %MON time_secondsf                =   6.9200000000000E+04
(PID.TID 0000.0001) %MON dynstat_eta_max              =   5.7973914512052E+00
(PID.TID 0000.0001) %MON dynstat_eta_min              =  -1.4175071508051E+01
(PID.TID 0000.0001) %MON dynstat_eta_mean             =  -2.5262930869954E+00
(PID.TID 0000.0001) %MON dynstat_eta_sd               =   4.9417311094040E+00
(PID.TID 0000.0001) %MON dynstat_eta_del2             =   1.9058183022065E-01
(PID.TID 0000.0001) %MON dynstat_uvel_max             =   2.9131293849360E-03
(PID.TID 0000.0001) %MON dynstat_uvel_min             =  -9.1638825344100E-03
(PID.TID 0000.0001) %MON dynstat_uvel_mean            =  -1.1965641620666E-09
(PID.TID 0000.0001) %MON dynstat_uvel_sd              =   2.4950289409364E-04
(PID.TID 0000.0001) %MON dynstat_uvel_del2            =   4.3279370555332E-07
(PID.TID 0000.0001) %MON dynstat_vvel_max             =   8.0536516657721E-03
(PID.TID 0000.0001) %MON dynstat_vvel_min             =  -2.6034108000026E-03
(PID.TID 0000.0001) %MON dynstat_vvel_mean            =  -5.0977995555390E-08
(PID.TID 0000.0001) %MON dynstat_vvel_sd              =   1.4885947159400E-04
(PID.TID 0000.0001) %MON dynstat_vvel_del2            =   4.1045845240092E-07
(PID.TID 0000.0001) %MON dynstat_wvel_max             =   3.4528306731913E-04
(PID.TID 0000.0001) %MON dynstat_wvel_min             =  -3.3461927954418E-04
(PID.TID 0000.0001) %MON dynstat_wvel_mean            =   1.6991769262890E-10
(PID.TID 0000.0001) %MON dynstat_wvel_sd              =   9.9713722677117E-06
(PID.TID 0000.0001) %MON dynstat_wvel_del2            =   4.0485116405956E-08
(PID.TID 0000.0001) %MON dynstat_theta_max            =   1.2000000000000E+00
(PID.TID 0000.0001) %MON dynstat_theta_min            =  -1.0000000000000E+00
(PID.TID 0000.0001) %MON dynstat_theta_mean           =   5.6534757175470E-01
(PID.TID 0000.0001) %MON dynstat_theta_sd             =   8.4902864903612E-01
(PID.TID 0000.0001) %MON dynstat_theta_del2           =   1.1546502382587E-06
(PID.TID 0000.0001) %MON dynstat_salt_max             =   3.4700000000000E+01
(PID.TID 0000.0001) %MON dynstat_salt_min             =   3.4000000000000E+01
(PID.TID 0000.0001) %MON dynstat_salt_mean            =   3.4498052737878E+01
(PID.TID 0000.0001) %MON dynstat_salt_sd              =   2.7014572895380E-01
(PID.TID 0000.0001) %MON dynstat_salt_del2            =   4.4975925907496E-07
(PID.TID 0000.0001) %MON advcfl_uvel_max              =   9.1638825344100E-04
(PID.TID 0000.0001) %MON advcfl_vvel_max              =   8.0536516657721E-04
(PID.TID 0000.0001) %MON advcfl_wvel_max              =   1.7264153365956E-03
(PID.TID 0000.0001) %MON advcfl_W_hf_max              =   1.7264153365956E-03
(PID.TID 0000.0001) %MON pe_b_mean                    =  -6.8261174817129E-01
(PID.TID 0000.0001) %MON ke_max                       =   2.5833137429632E-05
(PID.TID 0000.0001) %MON ke_mean                      =   4.1619956269349E-08
(PID.TID 0000.0001) %MON ke_vol                       =   4.6182938026061E+12
(PID.TID 0000.0001) // =======================================================
(PID.TID 0000.0001) // End MONITOR dynamic field statistics
(PID.TID 0000.0001) // =======================================================
(PID.TID 0000.0001) // =======================================================
(PID.TID 0000.0001) // Begin OBCS MONITOR field statistics
(PID.TID 0000.0001) // =======================================================
(PID.TID 0000.0001) %MON obc_N_vVel_max               =  -6.4464704745804E-08
(PID.TID 0000.0001) %MON obc_N_vVel_min               =  -6.4464704745805E-08
(PID.TID 0000.0001) %MON obc_N_vVel_mean              =  -6.4464704745804E-08
(PID.TID 0000.0001) %MON obc_N_vVel_sd                =   5.4750994875343E-15
(PID.TID 0000.0001) %MON obc_N_vVel_Int               =  -4.2546705132231E+00
(PID.TID 0000.0001) // =======================================================
(PID.TID 0000.0001) // End OBCS MONITOR field statistics
(PID.TID 0000.0001) // =======================================================
 cg2d: Sum(rhs),rhsMax =   3.01115059975483E+00  4.53048336134893E+02
(PID.TID 0000.0001)      cg2d_init_res =   1.43710496657495E-06
(PID.TID 0000.0001)      cg2d_iters(min,last) =      -1      72
(PID.TID 0000.0001)      cg2d_last_res =   7.24718060534719E-12
(PID.TID 0000.0001) // =======================================================
(PID.TID 0000.0001) // Begin MONITOR dynamic field statistics
(PID.TID 0000.0001) // =======================================================
(PID.TID 0000.0001) %MON time_tsnumber                =                   693
(PID.TID 0000.0001) %MON time_secondsf                =   6.9300000000000E+04
(PID.TID 0000.0001) %MON dynstat_eta_max              =   5.7973941423785E+00
(PID.TID 0000.0001) %MON dynstat_eta_min              =  -1.4175066998064E+01
(PID.TID 0000.0001) %MON dynstat_eta_mean             =  -2.5262903130935E+00
(PID.TID 0000.0001) %MON dynstat_eta_sd               =   4.9417302503319E+00
(PID.TID 0000.0001) %MON dynstat_eta_del2             =   1.9058183543532E-01
(PID.TID 0000.0001) %MON dynstat_uvel_max             =   2.9179803353490E-03
(PID.TID 0000.0001) %MON dynstat_uvel_min             =  -9.1905650039701E-03
(PID.TID 0000.0001) %MON dynstat_uvel_mean            =  -1.1919628052522E-09
(PID.TID 0000.0001) %MON dynstat_uvel_sd              =   2.5006928796624E-04
(PID.TID 0000.0001) %MON dynstat_uvel_del2            =   4.3370364462327E-07
(PID.TID 0000.0001) %MON dynstat_vvel_max             =   8.0708645178869E-03
(PID.TID 0000.0001) %MON dynstat_vvel_min             =  -2.6110148363010E-03
(PID.TID 0000.0001) %MON dynstat_vvel_mean            =  -5.0795377047342E-08
(PID.TID 0000.0001) %MON dynstat_vvel_sd              =   1.4912955959298E-04
(PID.TID 0000.0001) %MON dynstat_vvel_del2            =   4.1110255376650E-07
(PID.TID 0000.0001) %MON dynstat_wvel_max             =   3.4645078364538E-04
(PID.TID 0000.0001) %MON dynstat_wvel_min             =  -3.3574666812378E-04
(PID.TID 0000.0001) %MON dynstat_wvel_mean            =   1.6967208786823E-10
(PID.TID 0000.0001) %MON dynstat_wvel_sd              =   9.8990372204845E-06
(PID.TID 0000.0001) %MON dynstat_wvel_del2            =   3.9885512759404E-08
(PID.TID 0000.0001) %MON dynstat_theta_max            =   1.2000000000000E+00
(PID.TID 0000.0001) %MON dynstat_theta_min            =  -1.0000000000000E+00
(PID.TID 0000.0001) %MON dynstat_theta_mean           =   5.6534726963763E-01
(PID.TID 0000.0001) %MON dynstat_theta_sd             =   8.4902854444408E-01
(PID.TID 0000.0001) %MON dynstat_theta_del2           =   1.1568403203880E-06
(PID.TID 0000.0001) %MON dynstat_salt_max             =   3.4700000000000E+01
(PID.TID 0000.0001) %MON dynstat_salt_min             =   3.4000000000000E+01
(PID.TID 0000.0001) %MON dynstat_salt_mean            =   3.4498052617732E+01
(PID.TID 0000.0001) %MON dynstat_salt_sd              =   2.7014569202830E-01
(PID.TID 0000.0001) %MON dynstat_salt_del2            =   4.5065030987192E-07
(PID.TID 0000.0001) %MON advcfl_uvel_max              =   9.1905650039701E-04
(PID.TID 0000.0001) %MON advcfl_vvel_max              =   8.0708645178869E-04
(PID.TID 0000.0001) %MON advcfl_wvel_max              =   1.7322539182269E-03
(PID.TID 0000.0001) %MON advcfl_W_hf_max              =   1.7322539182269E-03
(PID.TID 0000.0001) %MON pe_b_mean                    =  -6.8261097003512E-01
(PID.TID 0000.0001) %MON ke_max                       =   2.5982709414244E-05
(PID.TID 0000.0001) %MON ke_mean                      =   4.1799014415771E-08
(PID.TID 0000.0001) %MON ke_vol                       =   4.6182938190632E+12
(PID.TID 0000.0001) // =======================================================
(PID.TID 0000.0001) // End MONITOR dynamic field statistics
(PID.TID 0000.0001) // =======================================================
(PID.TID 0000.0001) // =======================================================
(PID.TID 0000.0001) // Begin OBCS MONITOR field statistics
(PID.TID 0000.0001) // =======================================================
(PID.TID 0000.0001) %MON obc_N_vVel_max               =  -6.4274000706136E-08
(PID.TID 0000.0001) %MON obc_N_vVel_min               =  -6.4274000706137E-08
(PID.TID 0000.0001) %MON obc_N_vVel_mean              =  -6.4274000706136E-08
(PID.TID 0000.0001) %MON obc_N_vVel_sd                =   1.5358040586647E-14
(PID.TID 0000.0001) %MON obc_N_vVel_Int               =  -4.2420840466050E+00
(PID.TID 0000.0001) // =======================================================
(PID.TID 0000.0001) // End OBCS MONITOR field statistics
(PID.TID 0000.0001) // =======================================================
 cg2d: Sum(rhs),rhsMax =   3.01114735224916E+00  4.53048326678918E+02
(PID.TID 0000.0001)      cg2d_init_res =   1.43448118061939E-06
(PID.TID 0000.0001)      cg2d_iters(min,last) =      -1      72
(PID.TID 0000.0001)      cg2d_last_res =   7.27065727137976E-12
(PID.TID 0000.0001) // =======================================================
(PID.TID 0000.0001) // Begin MONITOR dynamic field statistics
(PID.TID 0000.0001) // =======================================================
(PID.TID 0000.0001) %MON time_tsnumber                =                   694
(PID.TID 0000.0001) %MON time_secondsf                =   6.9400000000000E+04
(PID.TID 0000.0001) %MON dynstat_eta_max              =   5.7973968336617E+00
(PID.TID 0000.0001) %MON dynstat_eta_min              =  -1.4175062489382E+01
(PID.TID 0000.0001) %MON dynstat_eta_mean             =  -2.5262875357780E+00
(PID.TID 0000.0001) %MON dynstat_eta_sd               =   4.9417293902419E+00
(PID.TID 0000.0001) %MON dynstat_eta_del2             =   1.9058184066077E-01
(PID.TID 0000.0001) %MON dynstat_uvel_max             =   2.9228369029219E-03
(PID.TID 0000.0001) %MON dynstat_uvel_min             =  -9.2173105407483E-03
(PID.TID 0000.0001) %MON dynstat_uvel_mean            =  -1.1872050663878E-09
(PID.TID 0000.0001) %MON dynstat_uvel_sd              =   2.5063814877335E-04
(PID.TID 0000.0001) %MON dynstat_uvel_del2            =   4.3461585497325E-07
(PID.TID 0000.0001) %MON dynstat_vvel_max             =   8.0881036946177E-03
(PID.TID 0000.0001) %MON dynstat_vvel_min             =  -2.6186303044557E-03
(PID.TID 0000.0001) %MON dynstat_vvel_mean            =  -5.0673745989812E-08
(PID.TID 0000.0001) %MON dynstat_vvel_sd              =   1.4941274210052E-04
(PID.TID 0000.0001) %MON dynstat_vvel_del2            =   4.1184964364684E-07
(PID.TID 0000.0001) %MON dynstat_wvel_max             =   3.4762108726705E-04
(PID.TID 0000.0001) %MON dynstat_wvel_min             =  -3.3687840619083E-04
(PID.TID 0000.0001) %MON dynstat_wvel_mean            =   1.6943258123653E-10
(PID.TID 0000.0001) %MON dynstat_wvel_sd              =   9.8739649177845E-06
(PID.TID 0000.0001) %MON dynstat_wvel_del2            =   3.9593321496508E-08
(PID.TID 0000.0001) %MON dynstat_theta_max            =   1.2000000000000E+00
(PID.TID 0000.0001) %MON dynstat_theta_min            =  -1.0000000000000E+00
(PID.TID 0000.0001) %MON dynstat_theta_mean           =   5.6534696717494E-01
(PID.TID 0000.0001) %MON dynstat_theta_sd             =   8.4902843958996E-01
(PID.TID 0000.0001) %MON dynstat_theta_del2           =   1.1589347526513E-06
(PID.TID 0000.0001) %MON dynstat_salt_max             =   3.4700000000000E+01
(PID.TID 0000.0001) %MON dynstat_salt_min             =   3.4000000000000E+01
(PID.TID 0000.0001) %MON dynstat_salt_mean            =   3.4498052497444E+01
(PID.TID 0000.0001) %MON dynstat_salt_sd              =   2.7014565500017E-01
(PID.TID 0000.0001) %MON dynstat_salt_del2            =   4.5151720938352E-07
(PID.TID 0000.0001) %MON advcfl_uvel_max              =   9.2173105407483E-04
(PID.TID 0000.0001) %MON advcfl_vvel_max              =   8.0881036946177E-04
(PID.TID 0000.0001) %MON advcfl_wvel_max              =   1.7381054363352E-03
(PID.TID 0000.0001) %MON advcfl_W_hf_max              =   1.7381054363352E-03
(PID.TID 0000.0001) %MON pe_b_mean                    =  -6.8261019078330E-01
(PID.TID 0000.0001) %MON ke_max                       =   2.6133078130601E-05
(PID.TID 0000.0001) %MON ke_mean                      =   4.1981023299818E-08
(PID.TID 0000.0001) %MON ke_vol                       =   4.6182938355402E+12
(PID.TID 0000.0001) // =======================================================
(PID.TID 0000.0001) // End MONITOR dynamic field statistics
(PID.TID 0000.0001) // =======================================================
(PID.TID 0000.0001) // =======================================================
(PID.TID 0000.0001) // Begin OBCS MONITOR field statistics
(PID.TID 0000.0001) // =======================================================
(PID.TID 0000.0001) %MON obc_N_vVel_max               =  -6.4138938173295E-08
(PID.TID 0000.0001) %MON obc_N_vVel_min               =  -6.4138938173297E-08
(PID.TID 0000.0001) %MON obc_N_vVel_mean              =  -6.4138938173297E-08
(PID.TID 0000.0001) %MON obc_N_vVel_sd                =  -1.5540559832854E-28
(PID.TID 0000.0001) %MON obc_N_vVel_Int               =  -4.2331699194376E+00
(PID.TID 0000.0001) // =======================================================
(PID.TID 0000.0001) // End OBCS MONITOR field statistics
(PID.TID 0000.0001) // =======================================================
 cg2d: Sum(rhs),rhsMax =   3.01114410046501E+00  4.53048317241204E+02
(PID.TID 0000.0001)      cg2d_init_res =   1.43556739660058E-06
(PID.TID 0000.0001)      cg2d_iters(min,last) =      -1      72
(PID.TID 0000.0001)      cg2d_last_res =   7.29467120007612E-12
(PID.TID 0000.0001) // =======================================================
(PID.TID 0000.0001) // Begin MONITOR dynamic field statistics
(PID.TID 0000.0001) // =======================================================
(PID.TID 0000.0001) %MON time_tsnumber                =                   695
(PID.TID 0000.0001) %MON time_secondsf                =   6.9500000000000E+04
(PID.TID 0000.0001) %MON dynstat_eta_max              =   5.7973995237347E+00
(PID.TID 0000.0001) %MON dynstat_eta_min              =  -1.4175057982340E+01
(PID.TID 0000.0001) %MON dynstat_eta_mean             =  -2.5262847549749E+00
(PID.TID 0000.0001) %MON dynstat_eta_sd               =   4.9417285291067E+00
(PID.TID 0000.0001) %MON dynstat_eta_del2             =   1.9058184589670E-01
(PID.TID 0000.0001) %MON dynstat_uvel_max             =   2.9276990422904E-03
(PID.TID 0000.0001) %MON dynstat_uvel_min             =  -9.2441192438404E-03
(PID.TID 0000.0001) %MON dynstat_uvel_mean            =  -1.1824115001055E-09
(PID.TID 0000.0001) %MON dynstat_uvel_sd              =   2.5120948228222E-04
(PID.TID 0000.0001) %MON dynstat_uvel_del2            =   4.3553034281549E-07
(PID.TID 0000.0001) %MON dynstat_vvel_max             =   8.1053692050448E-03
(PID.TID 0000.0001) %MON dynstat_vvel_min             =  -2.6262571542413E-03
(PID.TID 0000.0001) %MON dynstat_vvel_mean            =  -5.0613584436202E-08
(PID.TID 0000.0001) %MON dynstat_vvel_sd              =   1.4970927899538E-04
(PID.TID 0000.0001) %MON dynstat_vvel_del2            =   4.1270098429939E-07
(PID.TID 0000.0001) %MON dynstat_wvel_max             =   3.4879397753621E-04
(PID.TID 0000.0001) %MON dynstat_wvel_min             =  -3.3801450292009E-04
(PID.TID 0000.0001) %MON dynstat_wvel_mean            =   1.6915082337359E-10
(PID.TID 0000.0001) %MON dynstat_wvel_sd              =   9.8975311677560E-06
(PID.TID 0000.0001) %MON dynstat_wvel_del2            =   3.9632951699424E-08
(PID.TID 0000.0001) %MON dynstat_theta_max            =   1.2000000000000E+00
(PID.TID 0000.0001) %MON dynstat_theta_min            =  -1.0000000000000E+00
(PID.TID 0000.0001) %MON dynstat_theta_mean           =   5.6534666434936E-01
(PID.TID 0000.0001) %MON dynstat_theta_sd             =   8.4902833447996E-01
(PID.TID 0000.0001) %MON dynstat_theta_del2           =   1.1609330254151E-06
(PID.TID 0000.0001) %MON dynstat_salt_max             =   3.4700000000000E+01
(PID.TID 0000.0001) %MON dynstat_salt_min             =   3.4000000000000E+01
(PID.TID 0000.0001) %MON dynstat_salt_mean            =   3.4498052377008E+01
(PID.TID 0000.0001) %MON dynstat_salt_sd              =   2.7014561787139E-01
(PID.TID 0000.0001) %MON dynstat_salt_del2            =   4.5235983505173E-07
(PID.TID 0000.0001) %MON advcfl_uvel_max              =   9.2441192438404E-04
(PID.TID 0000.0001) %MON advcfl_vvel_max              =   8.1053692050448E-04
(PID.TID 0000.0001) %MON advcfl_wvel_max              =   1.7439698876810E-03
(PID.TID 0000.0001) %MON advcfl_W_hf_max              =   1.7439698876810E-03
(PID.TID 0000.0001) %MON pe_b_mean                    =  -6.8260941039808E-01
(PID.TID 0000.0001) %MON ke_max                       =   2.6284247222945E-05
(PID.TID 0000.0001) %MON ke_mean                      =   4.2166038502880E-08
(PID.TID 0000.0001) %MON ke_vol                       =   4.6182938520375E+12
(PID.TID 0000.0001) // =======================================================
(PID.TID 0000.0001) // End MONITOR dynamic field statistics
(PID.TID 0000.0001) // =======================================================
(PID.TID 0000.0001) // =======================================================
(PID.TID 0000.0001) // Begin OBCS MONITOR field statistics
(PID.TID 0000.0001) // =======================================================
(PID.TID 0000.0001) %MON obc_N_vVel_max               =  -6.4056662514492E-08
(PID.TID 0000.0001) %MON obc_N_vVel_min               =  -6.4056662514494E-08
(PID.TID 0000.0001) %MON obc_N_vVel_mean              =  -6.4056662514492E-08
(PID.TID 0000.0001) %MON obc_N_vVel_sd                =   1.6828578816238E-14
(PID.TID 0000.0001) %MON obc_N_vVel_Int               =  -4.2277397259565E+00
(PID.TID 0000.0001) // =======================================================
(PID.TID 0000.0001) // End OBCS MONITOR field statistics
(PID.TID 0000.0001) // =======================================================
 cg2d: Sum(rhs),rhsMax =   3.01114084430782E+00  4.53048307821701E+02
(PID.TID 0000.0001)      cg2d_init_res =   1.44031655826079E-06
(PID.TID 0000.0001)      cg2d_iters(min,last) =      -1      72
(PID.TID 0000.0001)      cg2d_last_res =   7.31831351362239E-12
(PID.TID 0000.0001) // =======================================================
(PID.TID 0000.0001) // Begin MONITOR dynamic field statistics
(PID.TID 0000.0001) // =======================================================
(PID.TID 0000.0001) %MON time_tsnumber                =                   696
(PID.TID 0000.0001) %MON time_secondsf                =   6.9600000000000E+04
(PID.TID 0000.0001) %MON dynstat_eta_max              =   5.7974022127970E+00
(PID.TID 0000.0001) %MON dynstat_eta_min              =  -1.4175053476647E+01
(PID.TID 0000.0001) %MON dynstat_eta_mean             =  -2.5262819706046E+00
(PID.TID 0000.0001) %MON dynstat_eta_sd               =   4.9417276669077E+00
(PID.TID 0000.0001) %MON dynstat_eta_del2             =   1.9058185114333E-01
(PID.TID 0000.0001) %MON dynstat_uvel_max             =   2.9325667126550E-03
(PID.TID 0000.0001) %MON dynstat_uvel_min             =  -9.2709912081048E-03
(PID.TID 0000.0001) %MON dynstat_uvel_mean            =  -1.1776777892327E-09
(PID.TID 0000.0001) %MON dynstat_uvel_sd              =   2.5178329597218E-04
(PID.TID 0000.0001) %MON dynstat_uvel_del2            =   4.3644713156662E-07
(PID.TID 0000.0001) %MON dynstat_vvel_max             =   8.1226610791856E-03
(PID.TID 0000.0001) %MON dynstat_vvel_min             =  -2.6338954401188E-03
(PID.TID 0000.0001) %MON dynstat_vvel_mean            =  -5.0613662720253E-08
(PID.TID 0000.0001) %MON dynstat_vvel_sd              =   1.5001850707363E-04
(PID.TID 0000.0001) %MON dynstat_vvel_del2            =   4.1364971725343E-07
(PID.TID 0000.0001) %MON dynstat_wvel_max             =   3.4996946317860E-04
(PID.TID 0000.0001) %MON dynstat_wvel_min             =  -3.3915497052754E-04
(PID.TID 0000.0001) %MON dynstat_wvel_mean            =   1.6889042089113E-10
(PID.TID 0000.0001) %MON dynstat_wvel_sd              =   9.9665970735262E-06
(PID.TID 0000.0001) %MON dynstat_wvel_del2            =   3.9994527382674E-08
(PID.TID 0000.0001) %MON dynstat_theta_max            =   1.2000000000000E+00
(PID.TID 0000.0001) %MON dynstat_theta_min            =  -1.0000000000000E+00
(PID.TID 0000.0001) %MON dynstat_theta_mean           =   5.6534636114316E-01
(PID.TID 0000.0001) %MON dynstat_theta_sd             =   8.4902822910577E-01
(PID.TID 0000.0001) %MON dynstat_theta_del2           =   1.1628434916449E-06
(PID.TID 0000.0001) %MON dynstat_salt_max             =   3.4700000000000E+01
(PID.TID 0000.0001) %MON dynstat_salt_min             =   3.4000000000000E+01
(PID.TID 0000.0001) %MON dynstat_salt_mean            =   3.4498052256419E+01
(PID.TID 0000.0001) %MON dynstat_salt_sd              =   2.7014558063922E-01
(PID.TID 0000.0001) %MON dynstat_salt_del2            =   4.5318041190884E-07
(PID.TID 0000.0001) %MON advcfl_uvel_max              =   9.2709912081048E-04
(PID.TID 0000.0001) %MON advcfl_vvel_max              =   8.1226610791856E-04
(PID.TID 0000.0001) %MON advcfl_wvel_max              =   1.7498473158930E-03
(PID.TID 0000.0001) %MON advcfl_W_hf_max              =   1.7498473158930E-03
(PID.TID 0000.0001) %MON pe_b_mean                    =  -6.8260862886237E-01
(PID.TID 0000.0001) %MON ke_max                       =   2.6436220299772E-05
(PID.TID 0000.0001) %MON ke_mean                      =   4.2353978421170E-08
(PID.TID 0000.0001) %MON ke_vol                       =   4.6182938685554E+12
(PID.TID 0000.0001) // =======================================================
(PID.TID 0000.0001) // End MONITOR dynamic field statistics
(PID.TID 0000.0001) // =======================================================
(PID.TID 0000.0001) // =======================================================
(PID.TID 0000.0001) // Begin OBCS MONITOR field statistics
(PID.TID 0000.0001) // =======================================================
(PID.TID 0000.0001) %MON obc_N_vVel_max               =  -6.4032076406765E-08
(PID.TID 0000.0001) %MON obc_N_vVel_min               =  -6.4032076406767E-08
(PID.TID 0000.0001) %MON obc_N_vVel_mean              =  -6.4032076406765E-08
(PID.TID 0000.0001) %MON obc_N_vVel_sd                =   1.5637994776138E-14
(PID.TID 0000.0001) %MON obc_N_vVel_Int               =  -4.2261170428465E+00
(PID.TID 0000.0001) // =======================================================
(PID.TID 0000.0001) // End OBCS MONITOR field statistics
(PID.TID 0000.0001) // =======================================================
 cg2d: Sum(rhs),rhsMax =   3.01113758368863E+00  4.53048298420131E+02
(PID.TID 0000.0001)      cg2d_init_res =   1.44843657435074E-06
(PID.TID 0000.0001)      cg2d_iters(min,last) =      -1      72
(PID.TID 0000.0001)      cg2d_last_res =   7.34121419802148E-12
(PID.TID 0000.0001) // =======================================================
(PID.TID 0000.0001) // Begin MONITOR dynamic field statistics
(PID.TID 0000.0001) // =======================================================
(PID.TID 0000.0001) %MON time_tsnumber                =                   697
(PID.TID 0000.0001) %MON time_secondsf                =   6.9700000000000E+04
(PID.TID 0000.0001) %MON dynstat_eta_max              =   5.7974049010417E+00
(PID.TID 0000.0001) %MON dynstat_eta_min              =  -1.4175048971997E+01
(PID.TID 0000.0001) %MON dynstat_eta_mean             =  -2.5262791825908E+00
(PID.TID 0000.0001) %MON dynstat_eta_sd               =   4.9417268036272E+00
(PID.TID 0000.0001) %MON dynstat_eta_del2             =   1.9058185640090E-01
(PID.TID 0000.0001) %MON dynstat_uvel_max             =   2.9374398716655E-03
(PID.TID 0000.0001) %MON dynstat_uvel_min             =  -9.2979265288218E-03
(PID.TID 0000.0001) %MON dynstat_uvel_mean            =  -1.1731041344488E-09
(PID.TID 0000.0001) %MON dynstat_uvel_sd              =   2.5235959898687E-04
(PID.TID 0000.0001) %MON dynstat_uvel_del2            =   4.3736625983872E-07
(PID.TID 0000.0001) %MON dynstat_vvel_max             =   8.1399793420578E-03
(PID.TID 0000.0001) %MON dynstat_vvel_min             =  -2.6415451934083E-03
(PID.TID 0000.0001) %MON dynstat_vvel_mean            =  -5.0670295329369E-08
(PID.TID 0000.0001) %MON dynstat_vvel_sd              =   1.5033891195558E-04
(PID.TID 0000.0001) %MON dynstat_vvel_del2            =   4.1468152848835E-07
(PID.TID 0000.0001) %MON dynstat_wvel_max             =   3.5114755081145E-04
(PID.TID 0000.0001) %MON dynstat_wvel_min             =  -3.4029982033385E-04
(PID.TID 0000.0001) %MON dynstat_wvel_mean            =   1.6865230265955E-10
(PID.TID 0000.0001) %MON dynstat_wvel_sd              =   1.0073969471806E-05
(PID.TID 0000.0001) %MON dynstat_wvel_del2            =   4.0635710893715E-08
(PID.TID 0000.0001) %MON dynstat_theta_max            =   1.2000000000000E+00
(PID.TID 0000.0001) %MON dynstat_theta_min            =  -1.0000000000000E+00
(PID.TID 0000.0001) %MON dynstat_theta_mean           =   5.6534605753838E-01
(PID.TID 0000.0001) %MON dynstat_theta_sd             =   8.4902812345615E-01
(PID.TID 0000.0001) %MON dynstat_theta_del2           =   1.1646829124412E-06
(PID.TID 0000.0001) %MON dynstat_salt_max             =   3.4700000000000E+01
(PID.TID 0000.0001) %MON dynstat_salt_min             =   3.4000000000000E+01
(PID.TID 0000.0001) %MON dynstat_salt_mean            =   3.4498052135669E+01
(PID.TID 0000.0001) %MON dynstat_salt_sd              =   2.7014554330012E-01
(PID.TID 0000.0001) %MON dynstat_salt_del2            =   4.5398326739630E-07
(PID.TID 0000.0001) %MON advcfl_uvel_max              =   9.2979265288218E-04
(PID.TID 0000.0001) %MON advcfl_vvel_max              =   8.1399793420578E-04
(PID.TID 0000.0001) %MON advcfl_wvel_max              =   1.7557377540572E-03
(PID.TID 0000.0001) %MON advcfl_W_hf_max              =   1.7557377540572E-03
(PID.TID 0000.0001) %MON pe_b_mean                    =  -6.8260784615971E-01
(PID.TID 0000.0001) %MON ke_max                       =   2.6589000990665E-05
(PID.TID 0000.0001) %MON ke_mean                      =   4.2544633617154E-08
(PID.TID 0000.0001) %MON ke_vol                       =   4.6182938850946E+12
(PID.TID 0000.0001) // =======================================================
(PID.TID 0000.0001) // End MONITOR dynamic field statistics
(PID.TID 0000.0001) // =======================================================
(PID.TID 0000.0001) // =======================================================
(PID.TID 0000.0001) // Begin OBCS MONITOR field statistics
(PID.TID 0000.0001) // =======================================================
(PID.TID 0000.0001) %MON obc_N_vVel_max               =  -6.4061247952132E-08
(PID.TID 0000.0001) %MON obc_N_vVel_min               =  -6.4061247952134E-08
(PID.TID 0000.0001) %MON obc_N_vVel_mean              =  -6.4061247952132E-08
(PID.TID 0000.0001) %MON obc_N_vVel_sd                =   1.4015219063576E-14
(PID.TID 0000.0001) %MON obc_N_vVel_Int               =  -4.2280423648407E+00
(PID.TID 0000.0001) // =======================================================
(PID.TID 0000.0001) // End OBCS MONITOR field statistics
(PID.TID 0000.0001) // =======================================================
 cg2d: Sum(rhs),rhsMax =   3.01113431852243E+00  4.53048289036472E+02
(PID.TID 0000.0001)      cg2d_init_res =   1.45932901288696E-06
(PID.TID 0000.0001)      cg2d_iters(min,last) =      -1      72
(PID.TID 0000.0001)      cg2d_last_res =   7.36341073461837E-12
(PID.TID 0000.0001) // =======================================================
(PID.TID 0000.0001) // Begin MONITOR dynamic field statistics
(PID.TID 0000.0001) // =======================================================
(PID.TID 0000.0001) %MON time_tsnumber                =                   698
(PID.TID 0000.0001) %MON time_secondsf                =   6.9800000000000E+04
(PID.TID 0000.0001) %MON dynstat_eta_max              =   5.7974075886290E+00
(PID.TID 0000.0001) %MON dynstat_eta_min              =  -1.4175044468111E+01
(PID.TID 0000.0001) %MON dynstat_eta_mean             =  -2.5262763908622E+00
(PID.TID 0000.0001) %MON dynstat_eta_sd               =   4.9417259392495E+00
(PID.TID 0000.0001) %MON dynstat_eta_del2             =   1.9058186166966E-01
(PID.TID 0000.0001) %MON dynstat_uvel_max             =   2.9423184769097E-03
(PID.TID 0000.0001) %MON dynstat_uvel_min             =  -9.3249253008185E-03
(PID.TID 0000.0001) %MON dynstat_uvel_mean            =  -1.1687750771556E-09
(PID.TID 0000.0001) %MON dynstat_uvel_sd              =   2.5293840195977E-04
(PID.TID 0000.0001) %MON dynstat_uvel_del2            =   4.3828777835557E-07
(PID.TID 0000.0001) %MON dynstat_vvel_max             =   8.1573240180159E-03
(PID.TID 0000.0001) %MON dynstat_vvel_min             =  -2.6492064435164E-03
(PID.TID 0000.0001) %MON dynstat_vvel_mean            =  -5.0777936691752E-08
(PID.TID 0000.0001) %MON dynstat_vvel_sd              =   1.5066826610413E-04
(PID.TID 0000.0001) %MON dynstat_vvel_del2            =   4.1577591154203E-07
(PID.TID 0000.0001) %MON dynstat_wvel_max             =   3.5232824686978E-04
(PID.TID 0000.0001) %MON dynstat_wvel_min             =  -3.4144906354065E-04
(PID.TID 0000.0001) %MON dynstat_wvel_mean            =   1.6844696172025E-10
(PID.TID 0000.0001) %MON dynstat_wvel_sd              =   1.0209353171107E-05
(PID.TID 0000.0001) %MON dynstat_wvel_del2            =   4.1488859211292E-08
(PID.TID 0000.0001) %MON dynstat_theta_max            =   1.2000000000000E+00
(PID.TID 0000.0001) %MON dynstat_theta_min            =  -1.0000000000000E+00
(PID.TID 0000.0001) %MON dynstat_theta_mean           =   5.6534575351731E-01
(PID.TID 0000.0001) %MON dynstat_theta_sd             =   8.4902801753321E-01
(PID.TID 0000.0001) %MON dynstat_theta_del2           =   1.1664754135918E-06
(PID.TID 0000.0001) %MON dynstat_salt_max             =   3.4700000000000E+01
(PID.TID 0000.0001) %MON dynstat_salt_min             =   3.4000000000000E+01
(PID.TID 0000.0001) %MON dynstat_salt_mean            =   3.4498052014754E+01
(PID.TID 0000.0001) %MON dynstat_salt_sd              =   2.7014550585471E-01
(PID.TID 0000.0001) %MON dynstat_salt_del2            =   4.5477469912929E-07
(PID.TID 0000.0001) %MON advcfl_uvel_max              =   9.3249253008185E-04
(PID.TID 0000.0001) %MON advcfl_vvel_max              =   8.1573240180159E-04
(PID.TID 0000.0001) %MON advcfl_wvel_max              =   1.7616412343489E-03
(PID.TID 0000.0001) %MON advcfl_W_hf_max              =   1.7616412343489E-03
(PID.TID 0000.0001) %MON pe_b_mean                    =  -6.8260706227487E-01
(PID.TID 0000.0001) %MON ke_max                       =   2.6742592935678E-05
(PID.TID 0000.0001) %MON ke_mean                      =   4.2737686085053E-08
(PID.TID 0000.0001) %MON ke_vol                       =   4.6182939016554E+12
(PID.TID 0000.0001) // =======================================================
(PID.TID 0000.0001) // End MONITOR dynamic field statistics
(PID.TID 0000.0001) // =======================================================
(PID.TID 0000.0001) // =======================================================
(PID.TID 0000.0001) // Begin OBCS MONITOR field statistics
(PID.TID 0000.0001) // =======================================================
(PID.TID 0000.0001) %MON obc_N_vVel_max               =  -6.4140022602102E-08
(PID.TID 0000.0001) %MON obc_N_vVel_min               =  -6.4140022602103E-08
(PID.TID 0000.0001) %MON obc_N_vVel_mean              =  -6.4140022602102E-08
(PID.TID 0000.0001) %MON obc_N_vVel_sd                =   1.4675115915227E-14
(PID.TID 0000.0001) %MON obc_N_vVel_Int               =  -4.2332414917387E+00
(PID.TID 0000.0001) // =======================================================
(PID.TID 0000.0001) // End OBCS MONITOR field statistics
(PID.TID 0000.0001) // =======================================================
 cg2d: Sum(rhs),rhsMax =   3.01113104873081E+00  4.53048279670903E+02
(PID.TID 0000.0001)      cg2d_init_res =   1.47220857301369E-06
(PID.TID 0000.0001)      cg2d_iters(min,last) =      -1      72
(PID.TID 0000.0001)      cg2d_last_res =   7.38481600651611E-12
(PID.TID 0000.0001) // =======================================================
(PID.TID 0000.0001) // Begin MONITOR dynamic field statistics
(PID.TID 0000.0001) // =======================================================
(PID.TID 0000.0001) %MON time_tsnumber                =                   699
(PID.TID 0000.0001) %MON time_secondsf                =   6.9900000000000E+04
(PID.TID 0000.0001) %MON dynstat_eta_max              =   5.7974102757209E+00
(PID.TID 0000.0001) %MON dynstat_eta_min              =  -1.4175039964734E+01
(PID.TID 0000.0001) %MON dynstat_eta_mean             =  -2.5262735953540E+00
(PID.TID 0000.0001) %MON dynstat_eta_sd               =   4.9417250737644E+00
(PID.TID 0000.0001) %MON dynstat_eta_del2             =   1.9058186694997E-01
(PID.TID 0000.0001) %MON dynstat_uvel_max             =   2.9472024858528E-03
(PID.TID 0000.0001) %MON dynstat_uvel_min             =  -9.3519876184809E-03
(PID.TID 0000.0001) %MON dynstat_uvel_mean            =  -1.1647597969131E-09
(PID.TID 0000.0001) %MON dynstat_uvel_sd              =   2.5351971680406E-04
(PID.TID 0000.0001) %MON dynstat_uvel_del2            =   4.3921174650786E-07
(PID.TID 0000.0001) %MON dynstat_vvel_max             =   8.1746951312014E-03
(PID.TID 0000.0001) %MON dynstat_vvel_min             =  -2.6568792203454E-03
(PID.TID 0000.0001) %MON dynstat_vvel_mean            =  -5.0929393379891E-08
(PID.TID 0000.0001) %MON dynstat_vvel_sd              =   1.5100382034685E-04
(PID.TID 0000.0001) %MON dynstat_vvel_del2            =   4.1690791295322E-07
(PID.TID 0000.0001) %MON dynstat_wvel_max             =   3.5351155782806E-04
(PID.TID 0000.0001) %MON dynstat_wvel_min             =  -3.4260271129917E-04
(PID.TID 0000.0001) %MON dynstat_wvel_mean            =   1.6828547737403E-10
(PID.TID 0000.0001) %MON dynstat_wvel_sd              =   1.0360573253172E-05
(PID.TID 0000.0001) %MON dynstat_wvel_del2            =   4.2471094498572E-08
(PID.TID 0000.0001) %MON dynstat_theta_max            =   1.2000000000000E+00
(PID.TID 0000.0001) %MON dynstat_theta_min            =  -1.0000000000000E+00
(PID.TID 0000.0001) %MON dynstat_theta_mean           =   5.6534544906282E-01
(PID.TID 0000.0001) %MON dynstat_theta_sd             =   8.4902791134691E-01
(PID.TID 0000.0001) %MON dynstat_theta_del2           =   1.1682502066612E-06
(PID.TID 0000.0001) %MON dynstat_salt_max             =   3.4700000000000E+01
(PID.TID 0000.0001) %MON dynstat_salt_min             =   3.4000000000000E+01
(PID.TID 0000.0001) %MON dynstat_salt_mean            =   3.4498051893667E+01
(PID.TID 0000.0001) %MON dynstat_salt_sd              =   2.7014546830605E-01
(PID.TID 0000.0001) %MON dynstat_salt_del2            =   4.5556230241067E-07
(PID.TID 0000.0001) %MON advcfl_uvel_max              =   9.3519876184809E-04
(PID.TID 0000.0001) %MON advcfl_vvel_max              =   8.1746951312014E-04
(PID.TID 0000.0001) %MON advcfl_wvel_max              =   1.7675577891403E-03
(PID.TID 0000.0001) %MON advcfl_W_hf_max              =   1.7675577891403E-03
(PID.TID 0000.0001) %MON pe_b_mean                    =  -6.8260627719439E-01
(PID.TID 0000.0001) %MON ke_max                       =   2.6896999785822E-05
(PID.TID 0000.0001) %MON ke_mean                      =   4.2932736763959E-08
(PID.TID 0000.0001) %MON ke_vol                       =   4.6182939182383E+12
(PID.TID 0000.0001) // =======================================================
(PID.TID 0000.0001) // End MONITOR dynamic field statistics
(PID.TID 0000.0001) // =======================================================
(PID.TID 0000.0001) // =======================================================
(PID.TID 0000.0001) // Begin OBCS MONITOR field statistics
(PID.TID 0000.0001) // =======================================================
(PID.TID 0000.0001) %MON obc_N_vVel_max               =  -6.4262975323850E-08
(PID.TID 0000.0001) %MON obc_N_vVel_min               =  -6.4262975323851E-08
(PID.TID 0000.0001) %MON obc_N_vVel_mean              =  -6.4262975323850E-08
(PID.TID 0000.0001) %MON obc_N_vVel_sd                =   1.4701968848782E-14
(PID.TID 0000.0001) %MON obc_N_vVel_Int               =  -4.2413563713741E+00
(PID.TID 0000.0001) // =======================================================
(PID.TID 0000.0001) // End OBCS MONITOR field statistics
(PID.TID 0000.0001) // =======================================================
 cg2d: Sum(rhs),rhsMax =   3.01112777424393E+00  4.53048270323767E+02
(PID.TID 0000.0001)      cg2d_init_res =   1.48612512221265E-06
(PID.TID 0000.0001)      cg2d_iters(min,last) =      -1      72
(PID.TID 0000.0001)      cg2d_last_res =   7.40514460725170E-12
(PID.TID 0000.0001) // =======================================================
(PID.TID 0000.0001) // Begin MONITOR dynamic field statistics
(PID.TID 0000.0001) // =======================================================
(PID.TID 0000.0001) %MON time_tsnumber                =                   700
(PID.TID 0000.0001) %MON time_secondsf                =   7.0000000000000E+04
(PID.TID 0000.0001) %MON dynstat_eta_max              =   5.7974129624705E+00
(PID.TID 0000.0001) %MON dynstat_eta_min              =  -1.4175035461610E+01
(PID.TID 0000.0001) %MON dynstat_eta_mean             =  -2.5262707960094E+00
(PID.TID 0000.0001) %MON dynstat_eta_sd               =   4.9417242071637E+00
(PID.TID 0000.0001) %MON dynstat_eta_del2             =   1.9058187224206E-01
(PID.TID 0000.0001) %MON dynstat_uvel_max             =   2.9520918556631E-03
(PID.TID 0000.0001) %MON dynstat_uvel_min             =  -9.3791135759282E-03
(PID.TID 0000.0001) %MON dynstat_uvel_mean            =  -1.1611154658241E-09
(PID.TID 0000.0001) %MON dynstat_uvel_sd              =   2.5410355641864E-04
(PID.TID 0000.0001) %MON dynstat_uvel_del2            =   4.4013822828896E-07
(PID.TID 0000.0001) %MON dynstat_vvel_max             =   8.1920927053463E-03
(PID.TID 0000.0001) %MON dynstat_vvel_min             =  -2.6645635537319E-03
(PID.TID 0000.0001) %MON dynstat_vvel_mean            =  -5.1116091330594E-08
(PID.TID 0000.0001) %MON dynstat_vvel_sd              =   1.5134253248754E-04
(PID.TID 0000.0001) %MON dynstat_vvel_del2            =   4.1805020137730E-07
(PID.TID 0000.0001) %MON dynstat_wvel_max             =   3.5469749017958E-04
(PID.TID 0000.0001) %MON dynstat_wvel_min             =  -3.4376077462863E-04
(PID.TID 0000.0001) %MON dynstat_wvel_mean            =   1.6817862309560E-10
(PID.TID 0000.0001) %MON dynstat_wvel_sd              =   1.0514832821516E-05
(PID.TID 0000.0001) %MON dynstat_wvel_del2            =   4.3494525450075E-08
(PID.TID 0000.0001) %MON dynstat_theta_max            =   1.2000000000000E+00
(PID.TID 0000.0001) %MON dynstat_theta_min            =  -1.0000000000000E+00
(PID.TID 0000.0001) %MON dynstat_theta_mean           =   5.6534514415870E-01
(PID.TID 0000.0001) %MON dynstat_theta_sd             =   8.4902780491199E-01
(PID.TID 0000.0001) %MON dynstat_theta_del2           =   1.1700388682139E-06
(PID.TID 0000.0001) %MON dynstat_salt_max             =   3.4700000000000E+01
(PID.TID 0000.0001) %MON dynstat_salt_min             =   3.4000000000000E+01
(PID.TID 0000.0001) %MON dynstat_salt_mean            =   3.4498051772405E+01
(PID.TID 0000.0001) %MON dynstat_salt_sd              =   2.7014543065874E-01
(PID.TID 0000.0001) %MON dynstat_salt_del2            =   4.5635427875705E-07
(PID.TID 0000.0001) %MON advcfl_uvel_max              =   9.3791135759282E-04
(PID.TID 0000.0001) %MON advcfl_vvel_max              =   8.1920927053463E-04
(PID.TID 0000.0001) %MON advcfl_wvel_max              =   1.7734874508979E-03
(PID.TID 0000.0001) %MON advcfl_W_hf_max              =   1.7734874508979E-03
(PID.TID 0000.0001) %MON pe_b_mean                    =  -6.8260549090671E-01
(PID.TID 0000.0001) %MON ke_max                       =   2.7052225202527E-05
(PID.TID 0000.0001) %MON ke_mean                      =   4.3129339005888E-08
(PID.TID 0000.0001) %MON ke_vol                       =   4.6182939348436E+12
(PID.TID 0000.0001) // =======================================================
(PID.TID 0000.0001) // End MONITOR dynamic field statistics
(PID.TID 0000.0001) // =======================================================
(PID.TID 0000.0001) // =======================================================
(PID.TID 0000.0001) // Begin OBCS MONITOR field statistics
(PID.TID 0000.0001) // =======================================================
(PID.TID 0000.0001) %MON obc_N_vVel_max               =  -6.4423396037084E-08
(PID.TID 0000.0001) %MON obc_N_vVel_min               =  -6.4423396037084E-08
(PID.TID 0000.0001) %MON obc_N_vVel_mean              =  -6.4423396037084E-08
(PID.TID 0000.0001) %MON obc_N_vVel_sd                =   9.0576781872059E-15
(PID.TID 0000.0001) %MON obc_N_vVel_Int               =  -4.2519441384475E+00
(PID.TID 0000.0001) // =======================================================
(PID.TID 0000.0001) // End OBCS MONITOR field statistics
(PID.TID 0000.0001) // =======================================================
 cg2d: Sum(rhs),rhsMax =   3.01112449499996E+00  4.53048260995605E+02
(PID.TID 0000.0001)      cg2d_init_res =   1.50008763767695E-06
(PID.TID 0000.0001)      cg2d_iters(min,last) =      -1      72
(PID.TID 0000.0001)      cg2d_last_res =   7.42421449448437E-12
(PID.TID 0000.0001) // =======================================================
(PID.TID 0000.0001) // Begin MONITOR dynamic field statistics
(PID.TID 0000.0001) // =======================================================
(PID.TID 0000.0001) %MON time_tsnumber                =                   701
(PID.TID 0000.0001) %MON time_secondsf                =   7.0100000000000E+04
(PID.TID 0000.0001) %MON dynstat_eta_max              =   5.7974156489914E+00
(PID.TID 0000.0001) %MON dynstat_eta_min              =  -1.4175030958514E+01
(PID.TID 0000.0001) %MON dynstat_eta_mean             =  -2.5262679927796E+00
(PID.TID 0000.0001) %MON dynstat_eta_sd               =   4.9417233394436E+00
(PID.TID 0000.0001) %MON dynstat_eta_del2             =   1.9058187754616E-01
(PID.TID 0000.0001) %MON dynstat_uvel_max             =   2.9569865433139E-03
(PID.TID 0000.0001) %MON dynstat_uvel_min             =  -9.4063032667897E-03
(PID.TID 0000.0001) %MON dynstat_uvel_mean            =  -1.1578951875860E-09
(PID.TID 0000.0001) %MON dynstat_uvel_sd              =   2.5468993438851E-04
(PID.TID 0000.0001) %MON dynstat_uvel_del2            =   4.4106728827334E-07
(PID.TID 0000.0001) %MON dynstat_vvel_max             =   8.2095167638181E-03
(PID.TID 0000.0001) %MON dynstat_vvel_min             =  -2.6722594736173E-03
(PID.TID 0000.0001) %MON dynstat_vvel_mean            =  -5.1328376766131E-08
(PID.TID 0000.0001) %MON dynstat_vvel_sd              =   1.5168131383089E-04
(PID.TID 0000.0001) %MON dynstat_vvel_del2            =   4.1917528467381E-07
(PID.TID 0000.0001) %MON dynstat_wvel_max             =   3.5588605041611E-04
(PID.TID 0000.0001) %MON dynstat_wvel_min             =  -3.4492326446309E-04
(PID.TID 0000.0001) %MON dynstat_wvel_mean            =   1.6813529387921E-10
(PID.TID 0000.0001) %MON dynstat_wvel_sd              =   1.0659831784865E-05
(PID.TID 0000.0001) %MON dynstat_wvel_del2            =   4.4474738703514E-08
(PID.TID 0000.0001) %MON dynstat_theta_max            =   1.2000000000000E+00
(PID.TID 0000.0001) %MON dynstat_theta_min            =  -1.0000000000000E+00
(PID.TID 0000.0001) %MON dynstat_theta_mean           =   5.6534483878975E-01
(PID.TID 0000.0001) %MON dynstat_theta_sd             =   8.4902769824396E-01
(PID.TID 0000.0001) %MON dynstat_theta_del2           =   1.1718726361882E-06
(PID.TID 0000.0001) %MON dynstat_salt_max             =   3.4700000000000E+01
(PID.TID 0000.0001) %MON dynstat_salt_min             =   3.4000000000000E+01
(PID.TID 0000.0001) %MON dynstat_salt_mean            =   3.4498051650960E+01
(PID.TID 0000.0001) %MON dynstat_salt_sd              =   2.7014539291762E-01
(PID.TID 0000.0001) %MON dynstat_salt_del2            =   4.5715870615543E-07
(PID.TID 0000.0001) %MON advcfl_uvel_max              =   9.4063032667897E-04
(PID.TID 0000.0001) %MON advcfl_vvel_max              =   8.2095167638181E-04
(PID.TID 0000.0001) %MON advcfl_wvel_max              =   1.7794302520805E-03
(PID.TID 0000.0001) %MON advcfl_W_hf_max              =   1.7794302520805E-03
(PID.TID 0000.0001) %MON pe_b_mean                    =  -6.8260470340217E-01
(PID.TID 0000.0001) %MON ke_max                       =   2.7208272858337E-05
(PID.TID 0000.0001) %MON ke_mean                      =   4.3327035266573E-08
(PID.TID 0000.0001) %MON ke_vol                       =   4.6182939514717E+12
(PID.TID 0000.0001) // =======================================================
(PID.TID 0000.0001) // End MONITOR dynamic field statistics
(PID.TID 0000.0001) // =======================================================
(PID.TID 0000.0001) // =======================================================
(PID.TID 0000.0001) // Begin OBCS MONITOR field statistics
(PID.TID 0000.0001) // =======================================================
(PID.TID 0000.0001) %MON obc_N_vVel_max               =  -6.4613346163029E-08
(PID.TID 0000.0001) %MON obc_N_vVel_min               =  -6.4613346163031E-08
(PID.TID 0000.0001) %MON obc_N_vVel_mean              =  -6.4613346163031E-08
(PID.TID 0000.0001) %MON obc_N_vVel_sd                =  -4.0941880980971E-28
(PID.TID 0000.0001) %MON obc_N_vVel_Int               =  -4.2644808467601E+00
(PID.TID 0000.0001) // =======================================================
(PID.TID 0000.0001) // End OBCS MONITOR field statistics
(PID.TID 0000.0001) // =======================================================
 cg2d: Sum(rhs),rhsMax =   3.01112121094770E+00  4.53048251687033E+02
(PID.TID 0000.0001)      cg2d_init_res =   1.51313549636584E-06
(PID.TID 0000.0001)      cg2d_iters(min,last) =      -1      72
(PID.TID 0000.0001)      cg2d_last_res =   7.44184169862859E-12
(PID.TID 0000.0001) // =======================================================
(PID.TID 0000.0001) // Begin MONITOR dynamic field statistics
(PID.TID 0000.0001) // =======================================================
(PID.TID 0000.0001) %MON time_tsnumber                =                   702
(PID.TID 0000.0001) %MON time_secondsf                =   7.0200000000000E+04
(PID.TID 0000.0001) %MON dynstat_eta_max              =   5.7974183353989E+00
(PID.TID 0000.0001) %MON dynstat_eta_min              =  -1.4175026455245E+01
(PID.TID 0000.0001) %MON dynstat_eta_mean             =  -2.5262651856252E+00
(PID.TID 0000.0001) %MON dynstat_eta_sd               =   4.9417224706023E+00
(PID.TID 0000.0001) %MON dynstat_eta_del2             =   1.9058188286240E-01
(PID.TID 0000.0001) %MON dynstat_uvel_max             =   2.9618865056236E-03
(PID.TID 0000.0001) %MON dynstat_uvel_min             =  -9.4335567841259E-03
(PID.TID 0000.0001) %MON dynstat_uvel_mean            =  -1.1551465823208E-09
(PID.TID 0000.0001) %MON dynstat_uvel_sd              =   2.5527886467102E-04
(PID.TID 0000.0001) %MON dynstat_uvel_del2            =   4.4199898818168E-07
(PID.TID 0000.0001) %MON dynstat_vvel_max             =   8.2269673294715E-03
(PID.TID 0000.0001) %MON dynstat_vvel_min             =  -2.6799670100850E-03
(PID.TID 0000.0001) %MON dynstat_vvel_mean            =  -5.1555852102489E-08
(PID.TID 0000.0001) %MON dynstat_vvel_sd              =   1.5201727361035E-04
(PID.TID 0000.0001) %MON dynstat_vvel_del2            =   4.2025769301745E-07
(PID.TID 0000.0001) %MON dynstat_wvel_max             =   3.5707724504253E-04
(PID.TID 0000.0001) %MON dynstat_wvel_min             =  -3.4609019167078E-04
(PID.TID 0000.0001) %MON dynstat_wvel_mean            =   1.6816160566115E-10
(PID.TID 0000.0001) %MON dynstat_wvel_sd              =   1.0784658306009E-05
(PID.TID 0000.0001) %MON dynstat_wvel_del2            =   4.5336894407558E-08
(PID.TID 0000.0001) %MON dynstat_theta_max            =   1.2000000000000E+00
(PID.TID 0000.0001) %MON dynstat_theta_min            =  -1.0000000000000E+00
(PID.TID 0000.0001) %MON dynstat_theta_mean           =   5.6534453294206E-01
(PID.TID 0000.0001) %MON dynstat_theta_sd             =   8.4902759135497E-01
(PID.TID 0000.0001) %MON dynstat_theta_del2           =   1.1737799189999E-06
(PID.TID 0000.0001) %MON dynstat_salt_max             =   3.4700000000000E+01
(PID.TID 0000.0001) %MON dynstat_salt_min             =   3.4000000000000E+01
(PID.TID 0000.0001) %MON dynstat_salt_mean            =   3.4498051529330E+01
(PID.TID 0000.0001) %MON dynstat_salt_sd              =   2.7014535508666E-01
(PID.TID 0000.0001) %MON dynstat_salt_del2            =   4.5798295761268E-07
(PID.TID 0000.0001) %MON advcfl_uvel_max              =   9.4335567841259E-04
(PID.TID 0000.0001) %MON advcfl_vvel_max              =   8.2269673294715E-04
(PID.TID 0000.0001) %MON advcfl_wvel_max              =   1.7853862252126E-03
(PID.TID 0000.0001) %MON advcfl_W_hf_max              =   1.7853862252126E-03
(PID.TID 0000.0001) %MON pe_b_mean                    =  -6.8260391467297E-01
(PID.TID 0000.0001) %MON ke_max                       =   2.7365146435231E-05
(PID.TID 0000.0001) %MON ke_mean                      =   4.3525394057342E-08
(PID.TID 0000.0001) %MON ke_vol                       =   4.6182939681229E+12
(PID.TID 0000.0001) // =======================================================
(PID.TID 0000.0001) // End MONITOR dynamic field statistics
(PID.TID 0000.0001) // =======================================================
(PID.TID 0000.0001) // =======================================================
(PID.TID 0000.0001) // Begin OBCS MONITOR field statistics
(PID.TID 0000.0001) // =======================================================
(PID.TID 0000.0001) %MON obc_N_vVel_max               =  -6.4823886617060E-08
(PID.TID 0000.0001) %MON obc_N_vVel_min               =  -6.4823886617061E-08
(PID.TID 0000.0001) %MON obc_N_vVel_mean              =  -6.4823886617060E-08
(PID.TID 0000.0001) %MON obc_N_vVel_sd                =   1.2306961192855E-14
(PID.TID 0000.0001) %MON obc_N_vVel_Int               =  -4.2783765167260E+00
(PID.TID 0000.0001) // =======================================================
(PID.TID 0000.0001) // End OBCS MONITOR field statistics
(PID.TID 0000.0001) // =======================================================
 cg2d: Sum(rhs),rhsMax =   3.01111792205016E+00  4.53048242398763E+02
(PID.TID 0000.0001)      cg2d_init_res =   1.52442449186575E-06
(PID.TID 0000.0001)      cg2d_iters(min,last) =      -1      72
(PID.TID 0000.0001)      cg2d_last_res =   7.45816167350075E-12
(PID.TID 0000.0001) // =======================================================
(PID.TID 0000.0001) // Begin MONITOR dynamic field statistics
(PID.TID 0000.0001) // =======================================================
(PID.TID 0000.0001) %MON time_tsnumber                =                   703
(PID.TID 0000.0001) %MON time_secondsf                =   7.0300000000000E+04
(PID.TID 0000.0001) %MON dynstat_eta_max              =   5.7974210217858E+00
(PID.TID 0000.0001) %MON dynstat_eta_min              =  -1.4175021951621E+01
(PID.TID 0000.0001) %MON dynstat_eta_mean             =  -2.5262623745190E+00
(PID.TID 0000.0001) %MON dynstat_eta_sd               =   4.9417216006431E+00
(PID.TID 0000.0001) %MON dynstat_eta_del2             =   1.9058188819100E-01
(PID.TID 0000.0001) %MON dynstat_uvel_max             =   2.9667916991993E-03
(PID.TID 0000.0001) %MON dynstat_uvel_min             =  -9.4608742204221E-03
(PID.TID 0000.0001) %MON dynstat_uvel_mean            =  -1.1529119051491E-09
(PID.TID 0000.0001) %MON dynstat_uvel_sd              =   2.5587036130642E-04
(PID.TID 0000.0001) %MON dynstat_uvel_del2            =   4.4293338360340E-07
(PID.TID 0000.0001) %MON dynstat_vvel_max             =   8.2444444246790E-03
(PID.TID 0000.0001) %MON dynstat_vvel_min             =  -2.6876861933864E-03
(PID.TID 0000.0001) %MON dynstat_vvel_mean            =  -5.1787737915717E-08
(PID.TID 0000.0001) %MON dynstat_vvel_sd              =   1.5234794206323E-04
(PID.TID 0000.0001) %MON dynstat_vvel_del2            =   4.2127595582288E-07
(PID.TID 0000.0001) %MON dynstat_wvel_max             =   3.5827108056009E-04
(PID.TID 0000.0001) %MON dynstat_wvel_min             =  -3.4726156694844E-04
(PID.TID 0000.0001) %MON dynstat_wvel_mean            =   1.6826086230296E-10
(PID.TID 0000.0001) %MON dynstat_wvel_sd              =   1.0880436548362E-05
(PID.TID 0000.0001) %MON dynstat_wvel_del2            =   4.6019622242224E-08
(PID.TID 0000.0001) %MON dynstat_theta_max            =   1.2000000000000E+00
(PID.TID 0000.0001) %MON dynstat_theta_min            =  -1.0000000000000E+00
(PID.TID 0000.0001) %MON dynstat_theta_mean           =   5.6534422660358E-01
(PID.TID 0000.0001) %MON dynstat_theta_sd             =   8.4902748425204E-01
(PID.TID 0000.0001) %MON dynstat_theta_del2           =   1.1757840270621E-06
(PID.TID 0000.0001) %MON dynstat_salt_max             =   3.4700000000000E+01
(PID.TID 0000.0001) %MON dynstat_salt_min             =   3.4000000000000E+01
(PID.TID 0000.0001) %MON dynstat_salt_mean            =   3.4498051407510E+01
(PID.TID 0000.0001) %MON dynstat_salt_sd              =   2.7014531716789E-01
(PID.TID 0000.0001) %MON dynstat_salt_del2            =   4.5883307139156E-07
(PID.TID 0000.0001) %MON advcfl_uvel_max              =   9.4608742204221E-04
(PID.TID 0000.0001) %MON advcfl_vvel_max              =   8.2444444246790E-04
(PID.TID 0000.0001) %MON advcfl_wvel_max              =   1.7913554028004E-03
(PID.TID 0000.0001) %MON advcfl_W_hf_max              =   1.7913554028004E-03
(PID.TID 0000.0001) %MON pe_b_mean                    =  -6.8260312471419E-01
(PID.TID 0000.0001) %MON ke_max                       =   2.7522849624701E-05
(PID.TID 0000.0001) %MON ke_mean                      =   4.3724044229782E-08
(PID.TID 0000.0001) %MON ke_vol                       =   4.6182939847974E+12
(PID.TID 0000.0001) // =======================================================
(PID.TID 0000.0001) // End MONITOR dynamic field statistics
(PID.TID 0000.0001) // =======================================================
(PID.TID 0000.0001) // =======================================================
(PID.TID 0000.0001) // Begin OBCS MONITOR field statistics
(PID.TID 0000.0001) // =======================================================
(PID.TID 0000.0001) %MON obc_N_vVel_max               =  -6.5045440706134E-08
(PID.TID 0000.0001) %MON obc_N_vVel_min               =  -6.5045440706135E-08
(PID.TID 0000.0001) %MON obc_N_vVel_mean              =  -6.5045440706135E-08
(PID.TID 0000.0001) %MON obc_N_vVel_sd                =  -1.9721522630525E-29
(PID.TID 0000.0001) %MON obc_N_vVel_Int               =  -4.2929990866049E+00
(PID.TID 0000.0001) // =======================================================
(PID.TID 0000.0001) // End OBCS MONITOR field statistics
(PID.TID 0000.0001) // =======================================================
 cg2d: Sum(rhs),rhsMax =   3.01111462828217E+00  4.53048233131531E+02
(PID.TID 0000.0001)      cg2d_init_res =   1.53325367502470E-06
(PID.TID 0000.0001)      cg2d_iters(min,last) =      -1      72
(PID.TID 0000.0001)      cg2d_last_res =   7.47312837553082E-12
(PID.TID 0000.0001) // =======================================================
(PID.TID 0000.0001) // Begin MONITOR dynamic field statistics
(PID.TID 0000.0001) // =======================================================
(PID.TID 0000.0001) %MON time_tsnumber                =                   704
(PID.TID 0000.0001) %MON time_secondsf                =   7.0400000000000E+04
(PID.TID 0000.0001) %MON dynstat_eta_max              =   5.7974237082208E+00
(PID.TID 0000.0001) %MON dynstat_eta_min              =  -1.4175017447482E+01
(PID.TID 0000.0001) %MON dynstat_eta_mean             =  -2.5262595594440E+00
(PID.TID 0000.0001) %MON dynstat_eta_sd               =   4.9417207295732E+00
(PID.TID 0000.0001) %MON dynstat_eta_del2             =   1.9058189353218E-01
(PID.TID 0000.0001) %MON dynstat_uvel_max             =   2.9717020804103E-03
(PID.TID 0000.0001) %MON dynstat_uvel_min             =  -9.4882556676072E-03
(PID.TID 0000.0001) %MON dynstat_uvel_mean            =  -1.1512197696402E-09
(PID.TID 0000.0001) %MON dynstat_uvel_sd              =   2.5646443815793E-04
(PID.TID 0000.0001) %MON dynstat_uvel_del2            =   4.4387052158716E-07
(PID.TID 0000.0001) %MON dynstat_vvel_max             =   8.2619480710611E-03
(PID.TID 0000.0001) %MON dynstat_vvel_min             =  -2.6954170539870E-03
(PID.TID 0000.0001) %MON dynstat_vvel_mean            =  -5.2013250087050E-08
(PID.TID 0000.0001) %MON dynstat_vvel_sd              =   1.5267145501163E-04
(PID.TID 0000.0001) %MON dynstat_vvel_del2            =   4.2221422553019E-07
(PID.TID 0000.0001) %MON dynstat_wvel_max             =   3.5946756348434E-04
(PID.TID 0000.0001) %MON dynstat_wvel_min             =  -3.4843740097205E-04
(PID.TID 0000.0001) %MON dynstat_wvel_mean            =   1.6843379067228E-10
(PID.TID 0000.0001) %MON dynstat_wvel_sd              =   1.0940755932707E-05
(PID.TID 0000.0001) %MON dynstat_wvel_del2            =   4.6477267879278E-08
(PID.TID 0000.0001) %MON dynstat_theta_max            =   1.2000000000000E+00
(PID.TID 0000.0001) %MON dynstat_theta_min            =  -1.0000000000000E+00
(PID.TID 0000.0001) %MON dynstat_theta_mean           =   5.6534391976392E-01
(PID.TID 0000.0001) %MON dynstat_theta_sd             =   8.4902737694449E-01
(PID.TID 0000.0001) %MON dynstat_theta_del2           =   1.1779012551867E-06
(PID.TID 0000.0001) %MON dynstat_salt_max             =   3.4700000000000E+01
(PID.TID 0000.0001) %MON dynstat_salt_min             =   3.4000000000000E+01
(PID.TID 0000.0001) %MON dynstat_salt_mean            =   3.4498051285497E+01
(PID.TID 0000.0001) %MON dynstat_salt_sd              =   2.7014527916411E-01
(PID.TID 0000.0001) %MON dynstat_salt_del2            =   4.5971326524104E-07
(PID.TID 0000.0001) %MON advcfl_uvel_max              =   9.4882556676072E-04
(PID.TID 0000.0001) %MON advcfl_vvel_max              =   8.2619480710611E-04
(PID.TID 0000.0001) %MON advcfl_wvel_max              =   1.7973378174217E-03
(PID.TID 0000.0001) %MON advcfl_W_hf_max              =   1.7973378174217E-03
(PID.TID 0000.0001) %MON pe_b_mean                    =  -6.8260233352300E-01
(PID.TID 0000.0001) %MON ke_max                       =   2.7681386127222E-05
(PID.TID 0000.0001) %MON ke_mean                      =   4.3922703892407E-08
(PID.TID 0000.0001) %MON ke_vol                       =   4.6182940014954E+12
(PID.TID 0000.0001) // =======================================================
(PID.TID 0000.0001) // End MONITOR dynamic field statistics
(PID.TID 0000.0001) // =======================================================
(PID.TID 0000.0001) // =======================================================
(PID.TID 0000.0001) // Begin OBCS MONITOR field statistics
(PID.TID 0000.0001) // =======================================================
(PID.TID 0000.0001) %MON obc_N_vVel_max               =  -6.5268194236736E-08
(PID.TID 0000.0001) %MON obc_N_vVel_min               =  -6.5268194236737E-08
(PID.TID 0000.0001) %MON obc_N_vVel_mean              =  -6.5268194236736E-08
(PID.TID 0000.0001) %MON obc_N_vVel_sd                =   1.4183071981463E-14
(PID.TID 0000.0001) %MON obc_N_vVel_Int               =  -4.3077008196246E+00
(PID.TID 0000.0001) // =======================================================
(PID.TID 0000.0001) // End OBCS MONITOR field statistics
(PID.TID 0000.0001) // =======================================================
 cg2d: Sum(rhs),rhsMax =   3.01111132963249E+00  4.53048223886073E+02
(PID.TID 0000.0001)      cg2d_init_res =   1.53913438513207E-06
(PID.TID 0000.0001)      cg2d_iters(min,last) =      -1      72
(PID.TID 0000.0001)      cg2d_last_res =   7.48683302602915E-12
(PID.TID 0000.0001) // =======================================================
(PID.TID 0000.0001) // Begin MONITOR dynamic field statistics
(PID.TID 0000.0001) // =======================================================
(PID.TID 0000.0001) %MON time_tsnumber                =                   705
(PID.TID 0000.0001) %MON time_secondsf                =   7.0500000000000E+04
(PID.TID 0000.0001) %MON dynstat_eta_max              =   5.7974263947599E+00
(PID.TID 0000.0001) %MON dynstat_eta_min              =  -1.4175012942691E+01
(PID.TID 0000.0001) %MON dynstat_eta_mean             =  -2.5262567403949E+00
(PID.TID 0000.0001) %MON dynstat_eta_sd               =   4.9417198574031E+00
(PID.TID 0000.0001) %MON dynstat_eta_del2             =   1.9058189888620E-01
(PID.TID 0000.0001) %MON dynstat_uvel_max             =   2.9766176054675E-03
(PID.TID 0000.0001) %MON dynstat_uvel_min             =  -9.5157012170830E-03
(PID.TID 0000.0001) %MON dynstat_uvel_mean            =  -1.1500740780780E-09
(PID.TID 0000.0001) %MON dynstat_uvel_sd              =   2.5706110870386E-04
(PID.TID 0000.0001) %MON dynstat_uvel_del2            =   4.4481043908724E-07
(PID.TID 0000.0001) %MON dynstat_vvel_max             =   8.2794782896003E-03
(PID.TID 0000.0001) %MON dynstat_vvel_min             =  -2.7031596226417E-03
(PID.TID 0000.0001) %MON dynstat_vvel_mean            =  -5.2221959544503E-08
(PID.TID 0000.0001) %MON dynstat_vvel_sd              =   1.5298668631384E-04
(PID.TID 0000.0001) %MON dynstat_vvel_del2            =   4.2306343219289E-07
(PID.TID 0000.0001) %MON dynstat_wvel_max             =   3.6066670032654E-04
(PID.TID 0000.0001) %MON dynstat_wvel_min             =  -3.4961770424031E-04
(PID.TID 0000.0001) %MON dynstat_wvel_mean            =   1.6867861837177E-10
(PID.TID 0000.0001) %MON dynstat_wvel_sd              =   1.0961921048818E-05
(PID.TID 0000.0001) %MON dynstat_wvel_del2            =   4.6681046036744E-08
(PID.TID 0000.0001) %MON dynstat_theta_max            =   1.2000000000000E+00
(PID.TID 0000.0001) %MON dynstat_theta_min            =  -1.0000000000000E+00
(PID.TID 0000.0001) %MON dynstat_theta_mean           =   5.6534361241481E-01
(PID.TID 0000.0001) %MON dynstat_theta_sd             =   8.4902726944293E-01
(PID.TID 0000.0001) %MON dynstat_theta_del2           =   1.1801395457422E-06
(PID.TID 0000.0001) %MON dynstat_salt_max             =   3.4700000000000E+01
(PID.TID 0000.0001) %MON dynstat_salt_min             =   3.4000000000000E+01
(PID.TID 0000.0001) %MON dynstat_salt_mean            =   3.4498051163287E+01
(PID.TID 0000.0001) %MON dynstat_salt_sd              =   2.7014524107878E-01
(PID.TID 0000.0001) %MON dynstat_salt_del2            =   4.6062558949466E-07
(PID.TID 0000.0001) %MON advcfl_uvel_max              =   9.5157012170830E-04
(PID.TID 0000.0001) %MON advcfl_vvel_max              =   8.2794782896003E-04
(PID.TID 0000.0001) %MON advcfl_wvel_max              =   1.8033335016327E-03
(PID.TID 0000.0001) %MON advcfl_W_hf_max              =   1.8033335016327E-03
(PID.TID 0000.0001) %MON pe_b_mean                    =  -6.8260154109893E-01
(PID.TID 0000.0001) %MON ke_max                       =   2.7840759653134E-05
(PID.TID 0000.0001) %MON ke_mean                      =   4.4121201732263E-08
(PID.TID 0000.0001) %MON ke_vol                       =   4.6182940182169E+12
(PID.TID 0000.0001) // =======================================================
(PID.TID 0000.0001) // End MONITOR dynamic field statistics
(PID.TID 0000.0001) // =======================================================
(PID.TID 0000.0001) // =======================================================
(PID.TID 0000.0001) // Begin OBCS MONITOR field statistics
(PID.TID 0000.0001) // =======================================================
(PID.TID 0000.0001) %MON obc_N_vVel_max               =  -6.5482449482501E-08
(PID.TID 0000.0001) %MON obc_N_vVel_min               =  -6.5482449482501E-08
(PID.TID 0000.0001) %MON obc_N_vVel_mean              =  -6.5482449482501E-08
(PID.TID 0000.0001) %MON obc_N_vVel_sd                =  -5.2853680649808E-29
(PID.TID 0000.0001) %MON obc_N_vVel_Int               =  -4.3218416658451E+00
(PID.TID 0000.0001) // =======================================================
(PID.TID 0000.0001) // End OBCS MONITOR field statistics
(PID.TID 0000.0001) // =======================================================
 cg2d: Sum(rhs),rhsMax =   3.01110802610163E+00  4.53048214663092E+02
(PID.TID 0000.0001)      cg2d_init_res =   1.54180510307555E-06
(PID.TID 0000.0001)      cg2d_iters(min,last) =      -1      72
(PID.TID 0000.0001)      cg2d_last_res =   7.49922668975982E-12
(PID.TID 0000.0001) // =======================================================
(PID.TID 0000.0001) // Begin MONITOR dynamic field statistics
(PID.TID 0000.0001) // =======================================================
(PID.TID 0000.0001) %MON time_tsnumber                =                   706
(PID.TID 0000.0001) %MON time_secondsf                =   7.0600000000000E+04
(PID.TID 0000.0001) %MON dynstat_eta_max              =   5.7974290814443E+00
(PID.TID 0000.0001) %MON dynstat_eta_min              =  -1.4175008437145E+01
(PID.TID 0000.0001) %MON dynstat_eta_mean             =  -2.5262539173760E+00
(PID.TID 0000.0001) %MON dynstat_eta_sd               =   4.9417189841464E+00
(PID.TID 0000.0001) %MON dynstat_eta_del2             =   1.9058190425334E-01
(PID.TID 0000.0001) %MON dynstat_uvel_max             =   2.9815382302942E-03
(PID.TID 0000.0001) %MON dynstat_uvel_min             =  -9.5432109596931E-03
(PID.TID 0000.0001) %MON dynstat_uvel_mean            =  -1.1494602958469E-09
(PID.TID 0000.0001) %MON dynstat_uvel_sd              =   2.5766038589204E-04
(PID.TID 0000.0001) %MON dynstat_uvel_del2            =   4.4575316241934E-07
(PID.TID 0000.0001) %MON dynstat_vvel_max             =   8.2970351003882E-03
(PID.TID 0000.0001) %MON dynstat_vvel_min             =  -2.7109139303301E-03
(PID.TID 0000.0001) %MON dynstat_vvel_mean            =  -5.2404137148373E-08
(PID.TID 0000.0001) %MON dynstat_vvel_sd              =   1.5329331891557E-04
(PID.TID 0000.0001) %MON dynstat_vvel_del2            =   4.2382189078831E-07
(PID.TID 0000.0001) %MON dynstat_wvel_max             =   3.6186849760438E-04
(PID.TID 0000.0001) %MON dynstat_wvel_min             =  -3.5080248716111E-04
(PID.TID 0000.0001) %MON dynstat_wvel_mean            =   1.6899146294475E-10
(PID.TID 0000.0001) %MON dynstat_wvel_sd              =   1.0943057380723E-05
(PID.TID 0000.0001) %MON dynstat_wvel_del2            =   4.6619513162943E-08
(PID.TID 0000.0001) %MON dynstat_theta_max            =   1.2000000000000E+00
(PID.TID 0000.0001) %MON dynstat_theta_min            =  -1.0000000000000E+00
(PID.TID 0000.0001) %MON dynstat_theta_mean           =   5.6534330454997E-01
(PID.TID 0000.0001) %MON dynstat_theta_sd             =   8.4902716175677E-01
(PID.TID 0000.0001) %MON dynstat_theta_del2           =   1.1824978263554E-06
(PID.TID 0000.0001) %MON dynstat_salt_max             =   3.4700000000000E+01
(PID.TID 0000.0001) %MON dynstat_salt_min             =   3.4000000000000E+01
(PID.TID 0000.0001) %MON dynstat_salt_mean            =   3.4498051040879E+01
(PID.TID 0000.0001) %MON dynstat_salt_sd              =   2.7014520291495E-01
(PID.TID 0000.0001) %MON dynstat_salt_del2            =   4.6156976099084E-07
(PID.TID 0000.0001) %MON advcfl_uvel_max              =   9.5432109596931E-04
(PID.TID 0000.0001) %MON advcfl_vvel_max              =   8.2970351003881E-04
(PID.TID 0000.0001) %MON advcfl_wvel_max              =   1.8093424880219E-03
(PID.TID 0000.0001) %MON advcfl_W_hf_max              =   1.8093424880219E-03
(PID.TID 0000.0001) %MON pe_b_mean                    =  -6.8260074744347E-01
(PID.TID 0000.0001) %MON ke_max                       =   2.8000973921715E-05
(PID.TID 0000.0001) %MON ke_mean                      =   4.4319489145366E-08
(PID.TID 0000.0001) %MON ke_vol                       =   4.6182940349621E+12
(PID.TID 0000.0001) // =======================================================
(PID.TID 0000.0001) // End MONITOR dynamic field statistics
(PID.TID 0000.0001) // =======================================================
(PID.TID 0000.0001) // =======================================================
(PID.TID 0000.0001) // Begin OBCS MONITOR field statistics
(PID.TID 0000.0001) // =======================================================
(PID.TID 0000.0001) %MON obc_N_vVel_max               =  -6.5678968224482E-08
(PID.TID 0000.0001) %MON obc_N_vVel_min               =  -6.5678968224482E-08
(PID.TID 0000.0001) %MON obc_N_vVel_mean              =  -6.5678968224482E-08
(PID.TID 0000.0001) %MON obc_N_vVel_sd                =   6.8222278918283E-15
(PID.TID 0000.0001) %MON obc_N_vVel_Int               =  -4.3348119028158E+00
(PID.TID 0000.0001) // =======================================================
(PID.TID 0000.0001) // End OBCS MONITOR field statistics
(PID.TID 0000.0001) // =======================================================
 cg2d: Sum(rhs),rhsMax =   3.01110471770154E+00  4.53048205463197E+02
(PID.TID 0000.0001)      cg2d_init_res =   1.54124766894817E-06
(PID.TID 0000.0001)      cg2d_iters(min,last) =      -1      72
(PID.TID 0000.0001)      cg2d_last_res =   7.51061537811772E-12
(PID.TID 0000.0001) // =======================================================
(PID.TID 0000.0001) // Begin MONITOR dynamic field statistics
(PID.TID 0000.0001) // =======================================================
(PID.TID 0000.0001) %MON time_tsnumber                =                   707
(PID.TID 0000.0001) %MON time_secondsf                =   7.0700000000000E+04
(PID.TID 0000.0001) %MON dynstat_eta_max              =   5.7974317683109E+00
(PID.TID 0000.0001) %MON dynstat_eta_min              =  -1.4175003930730E+01
(PID.TID 0000.0001) %MON dynstat_eta_mean             =  -2.5262510904008E+00
(PID.TID 0000.0001) %MON dynstat_eta_sd               =   4.9417181098172E+00
(PID.TID 0000.0001) %MON dynstat_eta_del2             =   1.9058190963384E-01
(PID.TID 0000.0001) %MON dynstat_uvel_max             =   2.9864639106325E-03
(PID.TID 0000.0001) %MON dynstat_uvel_min             =  -9.5707849856268E-03
(PID.TID 0000.0001) %MON dynstat_uvel_mean            =  -1.1493471458052E-09
(PID.TID 0000.0001) %MON dynstat_uvel_sd              =   2.5826228206119E-04
(PID.TID 0000.0001) %MON dynstat_uvel_del2            =   4.4669870761234E-07
(PID.TID 0000.0001) %MON dynstat_vvel_max             =   8.3146185226699E-03
(PID.TID 0000.0001) %MON dynstat_vvel_min             =  -2.7186800083534E-03
(PID.TID 0000.0001) %MON dynstat_vvel_mean            =  -5.2551076336821E-08
(PID.TID 0000.0001) %MON dynstat_vvel_sd              =   1.5359185020383E-04
(PID.TID 0000.0001) %MON dynstat_vvel_del2            =   4.2449532440550E-07
(PID.TID 0000.0001) %MON dynstat_wvel_max             =   3.6307296183683E-04
(PID.TID 0000.0001) %MON dynstat_wvel_min             =  -3.5199176005221E-04
(PID.TID 0000.0001) %MON dynstat_wvel_mean            =   1.6936628638709E-10
(PID.TID 0000.0001) %MON dynstat_wvel_sd              =   1.0886095602734E-05
(PID.TID 0000.0001) %MON dynstat_wvel_del2            =   4.6298602564818E-08
(PID.TID 0000.0001) %MON dynstat_theta_max            =   1.2000000000000E+00
(PID.TID 0000.0001) %MON dynstat_theta_min            =  -1.0000000000000E+00
(PID.TID 0000.0001) %MON dynstat_theta_mean           =   5.6534299616526E-01
(PID.TID 0000.0001) %MON dynstat_theta_sd             =   8.4902705388977E-01
(PID.TID 0000.0001) %MON dynstat_theta_del2           =   1.1849660637083E-06
(PID.TID 0000.0001) %MON dynstat_salt_max             =   3.4700000000000E+01
(PID.TID 0000.0001) %MON dynstat_salt_min             =   3.4000000000000E+01
(PID.TID 0000.0001) %MON dynstat_salt_mean            =   3.4498050918272E+01
(PID.TID 0000.0001) %MON dynstat_salt_sd              =   2.7014516467352E-01
(PID.TID 0000.0001) %MON dynstat_salt_del2            =   4.6254317933014E-07
(PID.TID 0000.0001) %MON advcfl_uvel_max              =   9.5707849856268E-04
(PID.TID 0000.0001) %MON advcfl_vvel_max              =   8.3146185226699E-04
(PID.TID 0000.0001) %MON advcfl_wvel_max              =   1.8153648091842E-03
(PID.TID 0000.0001) %MON advcfl_W_hf_max              =   1.8153648091842E-03
(PID.TID 0000.0001) %MON pe_b_mean                    =  -6.8259995255965E-01
(PID.TID 0000.0001) %MON ke_max                       =   2.8162032660833E-05
(PID.TID 0000.0001) %MON ke_mean                      =   4.4517642338434E-08
(PID.TID 0000.0001) %MON ke_vol                       =   4.6182940517308E+12
(PID.TID 0000.0001) // =======================================================
(PID.TID 0000.0001) // End MONITOR dynamic field statistics
(PID.TID 0000.0001) // =======================================================
(PID.TID 0000.0001) // =======================================================
(PID.TID 0000.0001) // Begin OBCS MONITOR field statistics
(PID.TID 0000.0001) // =======================================================
(PID.TID 0000.0001) %MON obc_N_vVel_max               =  -6.5849247345926E-08
(PID.TID 0000.0001) %MON obc_N_vVel_min               =  -6.5849247345927E-08
(PID.TID 0000.0001) %MON obc_N_vVel_mean              =  -6.5849247345927E-08
(PID.TID 0000.0001) %MON obc_N_vVel_sd                =  -1.5619445923376E-28
(PID.TID 0000.0001) %MON obc_N_vVel_Int               =  -4.3460503248312E+00
(PID.TID 0000.0001) // =======================================================
(PID.TID 0000.0001) // End OBCS MONITOR field statistics
(PID.TID 0000.0001) // =======================================================
 cg2d: Sum(rhs),rhsMax =   3.01110140445446E+00  4.53048196286895E+02
(PID.TID 0000.0001)      cg2d_init_res =   1.53768665039665E-06
(PID.TID 0000.0001)      cg2d_iters(min,last) =      -1      72
(PID.TID 0000.0001)      cg2d_last_res =   7.52119270518438E-12
(PID.TID 0000.0001) // =======================================================
(PID.TID 0000.0001) // Begin MONITOR dynamic field statistics
(PID.TID 0000.0001) // =======================================================
(PID.TID 0000.0001) %MON time_tsnumber                =                   708
(PID.TID 0000.0001) %MON time_secondsf                =   7.0800000000000E+04
(PID.TID 0000.0001) %MON dynstat_eta_max              =   5.7974344553700E+00
(PID.TID 0000.0001) %MON dynstat_eta_min              =  -1.4174999423375E+01
(PID.TID 0000.0001) %MON dynstat_eta_mean             =  -2.5262482594908E+00
(PID.TID 0000.0001) %MON dynstat_eta_sd               =   4.9417172344319E+00
(PID.TID 0000.0001) %MON dynstat_eta_del2             =   1.9058191502792E-01
(PID.TID 0000.0001) %MON dynstat_uvel_max             =   2.9913946019420E-03
(PID.TID 0000.0001) %MON dynstat_uvel_min             =  -9.5984233845474E-03
(PID.TID 0000.0001) %MON dynstat_uvel_mean            =  -1.1496895912907E-09
(PID.TID 0000.0001) %MON dynstat_uvel_sd              =   2.5886680892499E-04
(PID.TID 0000.0001) %MON dynstat_uvel_del2            =   4.4764708169221E-07
(PID.TID 0000.0001) %MON dynstat_vvel_max             =   8.3322285748115E-03
(PID.TID 0000.0001) %MON dynstat_vvel_min             =  -2.7264578883850E-03
(PID.TID 0000.0001) %MON dynstat_vvel_mean            =  -5.2655385808175E-08
(PID.TID 0000.0001) %MON dynstat_vvel_sd              =   1.5388353256716E-04
(PID.TID 0000.0001) %MON dynstat_vvel_del2            =   4.2509630853379E-07
(PID.TID 0000.0001) %MON dynstat_wvel_max             =   3.6428009954608E-04
(PID.TID 0000.0001) %MON dynstat_wvel_min             =  -3.5318553307655E-04
(PID.TID 0000.0001) %MON dynstat_wvel_mean            =   1.6979503595192E-10
(PID.TID 0000.0001) %MON dynstat_wvel_sd              =   1.0795642344832E-05
(PID.TID 0000.0001) %MON dynstat_wvel_del2            =   4.5741312715524E-08
(PID.TID 0000.0001) %MON dynstat_theta_max            =   1.2000000000000E+00
(PID.TID 0000.0001) %MON dynstat_theta_min            =  -1.0000000000000E+00
(PID.TID 0000.0001) %MON dynstat_theta_mean           =   5.6534268725869E-01
(PID.TID 0000.0001) %MON dynstat_theta_sd             =   8.4902694583901E-01
(PID.TID 0000.0001) %MON dynstat_theta_del2           =   1.1875260898351E-06
(PID.TID 0000.0001) %MON dynstat_salt_max             =   3.4700000000000E+01
(PID.TID 0000.0001) %MON dynstat_salt_min             =   3.4000000000000E+01
(PID.TID 0000.0001) %MON dynstat_salt_mean            =   3.4498050795463E+01
(PID.TID 0000.0001) %MON dynstat_salt_sd              =   2.7014512635369E-01
(PID.TID 0000.0001) %MON dynstat_salt_del2            =   4.6354113244257E-07
(PID.TID 0000.0001) %MON advcfl_uvel_max              =   9.5984233845474E-04
(PID.TID 0000.0001) %MON advcfl_vvel_max              =   8.3322285748115E-04
(PID.TID 0000.0001) %MON advcfl_wvel_max              =   1.8214004977304E-03
(PID.TID 0000.0001) %MON advcfl_W_hf_max              =   1.8214004977304E-03
(PID.TID 0000.0001) %MON pe_b_mean                    =  -6.8259915645201E-01
(PID.TID 0000.0001) %MON ke_max                       =   2.8323939607214E-05
(PID.TID 0000.0001) %MON ke_mean                      =   4.4715854386072E-08
(PID.TID 0000.0001) %MON ke_vol                       =   4.6182940685230E+12
(PID.TID 0000.0001) // =======================================================
(PID.TID 0000.0001) // End MONITOR dynamic field statistics
(PID.TID 0000.0001) // =======================================================
(PID.TID 0000.0001) // =======================================================
(PID.TID 0000.0001) // Begin OBCS MONITOR field statistics
(PID.TID 0000.0001) // =======================================================
(PID.TID 0000.0001) %MON obc_N_vVel_max               =  -6.5985789007305E-08
(PID.TID 0000.0001) %MON obc_N_vVel_min               =  -6.5985789007305E-08
(PID.TID 0000.0001) %MON obc_N_vVel_mean              =  -6.5985789007305E-08
(PID.TID 0000.0001) %MON obc_N_vVel_sd                =   6.9368952146102E-15
(PID.TID 0000.0001) %MON obc_N_vVel_Int               =  -4.3550620744821E+00
(PID.TID 0000.0001) // =======================================================
(PID.TID 0000.0001) // End OBCS MONITOR field statistics
(PID.TID 0000.0001) // =======================================================
 cg2d: Sum(rhs),rhsMax =   3.01109808639242E+00  4.53048187134538E+02
(PID.TID 0000.0001)      cg2d_init_res =   1.53157469922916E-06
(PID.TID 0000.0001)      cg2d_iters(min,last) =      -1      72
(PID.TID 0000.0001)      cg2d_last_res =   7.53131427318235E-12
(PID.TID 0000.0001) // =======================================================
(PID.TID 0000.0001) // Begin MONITOR dynamic field statistics
(PID.TID 0000.0001) // =======================================================
(PID.TID 0000.0001) %MON time_tsnumber                =                   709
(PID.TID 0000.0001) %MON time_secondsf                =   7.0900000000000E+04
(PID.TID 0000.0001) %MON dynstat_eta_max              =   5.7974371426297E+00
(PID.TID 0000.0001) %MON dynstat_eta_min              =  -1.4174994915001E+01
(PID.TID 0000.0001) %MON dynstat_eta_mean             =  -2.5262454246747E+00
(PID.TID 0000.0001) %MON dynstat_eta_sd               =   4.9417163580079E+00
(PID.TID 0000.0001) %MON dynstat_eta_del2             =   1.9058192043576E-01
(PID.TID 0000.0001) %MON dynstat_uvel_max             =   2.9963302595775E-03
(PID.TID 0000.0001) %MON dynstat_uvel_min             =  -9.6261262454265E-03
(PID.TID 0000.0001) %MON dynstat_uvel_mean            =  -1.1504226410824E-09
(PID.TID 0000.0001) %MON dynstat_uvel_sd              =   2.5947397761912E-04
(PID.TID 0000.0001) %MON dynstat_uvel_del2            =   4.4859828460815E-07
(PID.TID 0000.0001) %MON dynstat_vvel_max             =   8.3498652742471E-03
(PID.TID 0000.0001) %MON dynstat_vvel_min             =  -2.7342476024437E-03
(PID.TID 0000.0001) %MON dynstat_vvel_mean            =  -5.2711233587908E-08
(PID.TID 0000.0001) %MON dynstat_vvel_sd              =   1.5417025501716E-04
(PID.TID 0000.0001) %MON dynstat_vvel_del2            =   4.2564318257917E-07
(PID.TID 0000.0001) %MON dynstat_wvel_max             =   3.6548991726427E-04
(PID.TID 0000.0001) %MON dynstat_wvel_min             =  -3.5438381630109E-04
(PID.TID 0000.0001) %MON dynstat_wvel_mean            =   1.7026782796099E-10
(PID.TID 0000.0001) %MON dynstat_wvel_sd              =   1.0678730729486E-05
(PID.TID 0000.0001) %MON dynstat_wvel_del2            =   4.4987001323587E-08
(PID.TID 0000.0001) %MON dynstat_theta_max            =   1.2000000000000E+00
(PID.TID 0000.0001) %MON dynstat_theta_min            =  -1.0000000000000E+00
(PID.TID 0000.0001) %MON dynstat_theta_mean           =   5.6534237783052E-01
(PID.TID 0000.0001) %MON dynstat_theta_sd             =   8.4902683760633E-01
(PID.TID 0000.0001) %MON dynstat_theta_del2           =   1.1901531960167E-06
(PID.TID 0000.0001) %MON dynstat_salt_max             =   3.4700000000000E+01
(PID.TID 0000.0001) %MON dynstat_salt_min             =   3.4000000000000E+01
(PID.TID 0000.0001) %MON dynstat_salt_mean            =   3.4498050672454E+01
(PID.TID 0000.0001) %MON dynstat_salt_sd              =   2.7014508795590E-01
(PID.TID 0000.0001) %MON dynstat_salt_del2            =   4.6455721707355E-07
(PID.TID 0000.0001) %MON advcfl_uvel_max              =   9.6261262454265E-04
(PID.TID 0000.0001) %MON advcfl_vvel_max              =   8.3498652742471E-04
(PID.TID 0000.0001) %MON advcfl_wvel_max              =   1.8274495863214E-03
(PID.TID 0000.0001) %MON advcfl_W_hf_max              =   1.8274495863214E-03
(PID.TID 0000.0001) %MON pe_b_mean                    =  -6.8259835912634E-01
(PID.TID 0000.0001) %MON ke_max                       =   2.8486698505839E-05
(PID.TID 0000.0001) %MON ke_mean                      =   4.4914418029306E-08
(PID.TID 0000.0001) %MON ke_vol                       =   4.6182940853386E+12
(PID.TID 0000.0001) // =======================================================
(PID.TID 0000.0001) // End MONITOR dynamic field statistics
(PID.TID 0000.0001) // =======================================================
(PID.TID 0000.0001) // =======================================================
(PID.TID 0000.0001) // Begin OBCS MONITOR field statistics
(PID.TID 0000.0001) // =======================================================
(PID.TID 0000.0001) %MON obc_N_vVel_max               =  -6.6082343142994E-08
(PID.TID 0000.0001) %MON obc_N_vVel_min               =  -6.6082343142994E-08
(PID.TID 0000.0001) %MON obc_N_vVel_mean              =  -6.6082343142994E-08
(PID.TID 0000.0001) %MON obc_N_vVel_sd                =   1.1816445329460E-14
(PID.TID 0000.0001) %MON obc_N_vVel_Int               =  -4.3614346474376E+00
(PID.TID 0000.0001) // =======================================================
(PID.TID 0000.0001) // End OBCS MONITOR field statistics
(PID.TID 0000.0001) // =======================================================
 cg2d: Sum(rhs),rhsMax =   3.01109476355416E+00  4.53048178006333E+02
(PID.TID 0000.0001)      cg2d_init_res =   1.52356255672383E-06
(PID.TID 0000.0001)      cg2d_iters(min,last) =      -1      72
(PID.TID 0000.0001)      cg2d_last_res =   7.54135625788214E-12
(PID.TID 0000.0001) // =======================================================
(PID.TID 0000.0001) // Begin MONITOR dynamic field statistics
(PID.TID 0000.0001) // =======================================================
(PID.TID 0000.0001) %MON time_tsnumber                =                   710
(PID.TID 0000.0001) %MON time_secondsf                =   7.1000000000000E+04
(PID.TID 0000.0001) %MON dynstat_eta_max              =   5.7974398300951E+00
(PID.TID 0000.0001) %MON dynstat_eta_min              =  -1.4174990405550E+01
(PID.TID 0000.0001) %MON dynstat_eta_mean             =  -2.5262425859863E+00
(PID.TID 0000.0001) %MON dynstat_eta_sd               =   4.9417154805627E+00
(PID.TID 0000.0001) %MON dynstat_eta_del2             =   1.9058192585753E-01
(PID.TID 0000.0001) %MON dynstat_uvel_max             =   3.0012708384550E-03
(PID.TID 0000.0001) %MON dynstat_uvel_min             =  -9.6538936566093E-03
(PID.TID 0000.0001) %MON dynstat_uvel_mean            =  -1.1514616188309E-09
(PID.TID 0000.0001) %MON dynstat_uvel_sd              =   2.6008379879100E-04
(PID.TID 0000.0001) %MON dynstat_uvel_del2            =   4.4955231170202E-07
(PID.TID 0000.0001) %MON dynstat_vvel_max             =   8.3675286372917E-03
(PID.TID 0000.0001) %MON dynstat_vvel_min             =  -2.7420491829391E-03
(PID.TID 0000.0001) %MON dynstat_vvel_mean            =  -5.2714517617849E-08
(PID.TID 0000.0001) %MON dynstat_vvel_sd              =   1.5445437631807E-04
(PID.TID 0000.0001) %MON dynstat_vvel_del2            =   4.2615851404230E-07
(PID.TID 0000.0001) %MON dynstat_wvel_max             =   3.6670242151384E-04
(PID.TID 0000.0001) %MON dynstat_wvel_min             =  -3.5558661967737E-04
(PID.TID 0000.0001) %MON dynstat_wvel_mean            =   1.7077351389826E-10
(PID.TID 0000.0001) %MON dynstat_wvel_sd              =   1.0544433004101E-05
(PID.TID 0000.0001) %MON dynstat_wvel_del2            =   4.4090107084154E-08
(PID.TID 0000.0001) %MON dynstat_theta_max            =   1.2000000000000E+00
(PID.TID 0000.0001) %MON dynstat_theta_min            =  -1.0000000000000E+00
(PID.TID 0000.0001) %MON dynstat_theta_mean           =   5.6534206788304E-01
(PID.TID 0000.0001) %MON dynstat_theta_sd             =   8.4902672919249E-01
(PID.TID 0000.0001) %MON dynstat_theta_del2           =   1.1928180961650E-06
(PID.TID 0000.0001) %MON dynstat_salt_max             =   3.4700000000000E+01
(PID.TID 0000.0001) %MON dynstat_salt_min             =   3.4000000000000E+01
(PID.TID 0000.0001) %MON dynstat_salt_mean            =   3.4498050549246E+01
(PID.TID 0000.0001) %MON dynstat_salt_sd              =   2.7014504948039E-01
(PID.TID 0000.0001) %MON dynstat_salt_del2            =   4.6558384939387E-07
(PID.TID 0000.0001) %MON advcfl_uvel_max              =   9.6538936566093E-04
(PID.TID 0000.0001) %MON advcfl_vvel_max              =   8.3675286372917E-04
(PID.TID 0000.0001) %MON advcfl_wvel_max              =   1.8335121075692E-03
(PID.TID 0000.0001) %MON advcfl_W_hf_max              =   1.8335121075692E-03
(PID.TID 0000.0001) %MON pe_b_mean                    =  -6.8259756058908E-01
(PID.TID 0000.0001) %MON ke_max                       =   2.8650313109819E-05
(PID.TID 0000.0001) %MON ke_mean                      =   4.5113700746966E-08
(PID.TID 0000.0001) %MON ke_vol                       =   4.6182941021774E+12
(PID.TID 0000.0001) // =======================================================
(PID.TID 0000.0001) // End MONITOR dynamic field statistics
(PID.TID 0000.0001) // =======================================================
(PID.TID 0000.0001) // =======================================================
(PID.TID 0000.0001) // Begin OBCS MONITOR field statistics
(PID.TID 0000.0001) // =======================================================
(PID.TID 0000.0001) %MON obc_N_vVel_max               =  -6.6134138336495E-08
(PID.TID 0000.0001) %MON obc_N_vVel_min               =  -6.6134138336497E-08
(PID.TID 0000.0001) %MON obc_N_vVel_mean              =  -6.6134138336495E-08
(PID.TID 0000.0001) %MON obc_N_vVel_sd                =   1.3499143273040E-14
(PID.TID 0000.0001) %MON obc_N_vVel_Int               =  -4.3648531302087E+00
(PID.TID 0000.0001) // =======================================================
(PID.TID 0000.0001) // End OBCS MONITOR field statistics
(PID.TID 0000.0001) // =======================================================
 cg2d: Sum(rhs),rhsMax =   3.01109143598357E+00  4.53048168902292E+02
(PID.TID 0000.0001)      cg2d_init_res =   1.51445305561547E-06
(PID.TID 0000.0001)      cg2d_iters(min,last) =      -1      72
(PID.TID 0000.0001)      cg2d_last_res =   7.55166266686118E-12
(PID.TID 0000.0001) // =======================================================
(PID.TID 0000.0001) // Begin MONITOR dynamic field statistics
(PID.TID 0000.0001) // =======================================================
(PID.TID 0000.0001) %MON time_tsnumber                =                   711
(PID.TID 0000.0001) %MON time_secondsf                =   7.1100000000000E+04
(PID.TID 0000.0001) %MON dynstat_eta_max              =   5.7974425177629E+00
(PID.TID 0000.0001) %MON dynstat_eta_min              =  -1.4174985894961E+01
(PID.TID 0000.0001) %MON dynstat_eta_mean             =  -2.5262397434625E+00
(PID.TID 0000.0001) %MON dynstat_eta_sd               =   4.9417146021129E+00
(PID.TID 0000.0001) %MON dynstat_eta_del2             =   1.9058193129339E-01
(PID.TID 0000.0001) %MON dynstat_uvel_max             =   3.0062162933699E-03
(PID.TID 0000.0001) %MON dynstat_uvel_min             =  -9.6817257058568E-03
(PID.TID 0000.0001) %MON dynstat_uvel_mean            =  -1.1527202663916E-09
(PID.TID 0000.0001) %MON dynstat_uvel_sd              =   2.6069628272003E-04
(PID.TID 0000.0001) %MON dynstat_uvel_del2            =   4.5050915639122E-07
(PID.TID 0000.0001) %MON dynstat_vvel_max             =   8.3852186793925E-03
(PID.TID 0000.0001) %MON dynstat_vvel_min             =  -2.7498626626983E-03
(PID.TID 0000.0001) %MON dynstat_vvel_mean            =  -5.2662987523106E-08
(PID.TID 0000.0001) %MON dynstat_vvel_sd              =   1.5473852368613E-04
(PID.TID 0000.0001) %MON dynstat_vvel_del2            =   4.2666723474335E-07
(PID.TID 0000.0001) %MON dynstat_wvel_max             =   3.6791761883440E-04
(PID.TID 0000.0001) %MON dynstat_wvel_min             =  -3.5679395301927E-04
(PID.TID 0000.0001) %MON dynstat_wvel_mean            =   1.7130000211683E-10
(PID.TID 0000.0001) %MON dynstat_wvel_sd              =   1.0403312561650E-05
(PID.TID 0000.0001) %MON dynstat_wvel_del2            =   4.3117986956907E-08
(PID.TID 0000.0001) %MON dynstat_theta_max            =   1.2000000000000E+00
(PID.TID 0000.0001) %MON dynstat_theta_min            =  -1.0000000000000E+00
(PID.TID 0000.0001) %MON dynstat_theta_mean           =   5.6534175742057E-01
(PID.TID 0000.0001) %MON dynstat_theta_sd             =   8.4902662059192E-01
(PID.TID 0000.0001) %MON dynstat_theta_del2           =   1.1954892492852E-06
(PID.TID 0000.0001) %MON dynstat_salt_max             =   3.4700000000000E+01
(PID.TID 0000.0001) %MON dynstat_salt_min             =   3.4000000000000E+01
(PID.TID 0000.0001) %MON dynstat_salt_mean            =   3.4498050425838E+01
(PID.TID 0000.0001) %MON dynstat_salt_sd              =   2.7014501092531E-01
(PID.TID 0000.0001) %MON dynstat_salt_del2            =   4.6661285076708E-07
(PID.TID 0000.0001) %MON advcfl_uvel_max              =   9.6817257058568E-04
(PID.TID 0000.0001) %MON advcfl_vvel_max              =   8.3852186793925E-04
(PID.TID 0000.0001) %MON advcfl_wvel_max              =   1.8395880941720E-03
(PID.TID 0000.0001) %MON advcfl_W_hf_max              =   1.8395880941720E-03
(PID.TID 0000.0001) %MON pe_b_mean                    =  -6.8259676084696E-01
(PID.TID 0000.0001) %MON ke_max                       =   2.8814787180814E-05
(PID.TID 0000.0001) %MON ke_mean                      =   4.5314114227349E-08
(PID.TID 0000.0001) %MON ke_vol                       =   4.6182941190392E+12
(PID.TID 0000.0001) // =======================================================
(PID.TID 0000.0001) // End MONITOR dynamic field statistics
(PID.TID 0000.0001) // =======================================================
(PID.TID 0000.0001) // =======================================================
(PID.TID 0000.0001) // Begin OBCS MONITOR field statistics
(PID.TID 0000.0001) // =======================================================
(PID.TID 0000.0001) %MON obc_N_vVel_max               =  -6.6138017769419E-08
(PID.TID 0000.0001) %MON obc_N_vVel_min               =  -6.6138017769421E-08
(PID.TID 0000.0001) %MON obc_N_vVel_mean              =  -6.6138017769421E-08
(PID.TID 0000.0001) %MON obc_N_vVel_sd                =  -3.4552107648680E-28
(PID.TID 0000.0001) %MON obc_N_vVel_Int               =  -4.3651091727818E+00
(PID.TID 0000.0001) // =======================================================
(PID.TID 0000.0001) // End OBCS MONITOR field statistics
(PID.TID 0000.0001) // =======================================================
 cg2d: Sum(rhs),rhsMax =   3.01108810372701E+00  4.53048159822243E+02
(PID.TID 0000.0001)      cg2d_init_res =   1.50514683860922E-06
(PID.TID 0000.0001)      cg2d_iters(min,last) =      -1      72
(PID.TID 0000.0001)      cg2d_last_res =   7.56243071707373E-12
(PID.TID 0000.0001) // =======================================================
(PID.TID 0000.0001) // Begin MONITOR dynamic field statistics
(PID.TID 0000.0001) // =======================================================
(PID.TID 0000.0001) %MON time_tsnumber                =                   712
(PID.TID 0000.0001) %MON time_secondsf                =   7.1200000000000E+04
(PID.TID 0000.0001) %MON dynstat_eta_max              =   5.7974452056419E+00
(PID.TID 0000.0001) %MON dynstat_eta_min              =  -1.4174981383179E+01
(PID.TID 0000.0001) %MON dynstat_eta_mean             =  -2.5262368971410E+00
(PID.TID 0000.0001) %MON dynstat_eta_sd               =   4.9417137226734E+00
(PID.TID 0000.0001) %MON dynstat_eta_del2             =   1.9058193674345E-01
(PID.TID 0000.0001) %MON dynstat_uvel_max             =   3.0111665788279E-03
(PID.TID 0000.0001) %MON dynstat_uvel_min             =  -9.7096224802806E-03
(PID.TID 0000.0001) %MON dynstat_uvel_mean            =  -1.1541115971815E-09
(PID.TID 0000.0001) %MON dynstat_uvel_sd              =   2.6131143945431E-04
(PID.TID 0000.0001) %MON dynstat_uvel_del2            =   4.5146881299416E-07
(PID.TID 0000.0001) %MON dynstat_vvel_max             =   8.4029354147741E-03
(PID.TID 0000.0001) %MON dynstat_vvel_min             =  -2.7576880749285E-03
(PID.TID 0000.0001) %MON dynstat_vvel_mean            =  -5.2556317559938E-08
(PID.TID 0000.0001) %MON dynstat_vvel_sd              =   1.5502537376875E-04
(PID.TID 0000.0001) %MON dynstat_vvel_del2            =   4.2719459629863E-07
(PID.TID 0000.0001) %MON dynstat_wvel_max             =   3.6913551575530E-04
(PID.TID 0000.0001) %MON dynstat_wvel_min             =  -3.5800582603864E-04
(PID.TID 0000.0001) %MON dynstat_wvel_mean            =   1.7183466349653E-10
(PID.TID 0000.0001) %MON dynstat_wvel_sd              =   1.0266699210530E-05
(PID.TID 0000.0001) %MON dynstat_wvel_del2            =   4.2147448572033E-08
(PID.TID 0000.0001) %MON dynstat_theta_max            =   1.2000000000000E+00
(PID.TID 0000.0001) %MON dynstat_theta_min            =  -1.0000000000000E+00
(PID.TID 0000.0001) %MON dynstat_theta_mean           =   5.6534144644921E-01
(PID.TID 0000.0001) %MON dynstat_theta_sd             =   8.4902651179803E-01
(PID.TID 0000.0001) %MON dynstat_theta_del2           =   1.1981354029888E-06
(PID.TID 0000.0001) %MON dynstat_salt_max             =   3.4700000000000E+01
(PID.TID 0000.0001) %MON dynstat_salt_min             =   3.4000000000000E+01
(PID.TID 0000.0001) %MON dynstat_salt_mean            =   3.4498050302233E+01
(PID.TID 0000.0001) %MON dynstat_salt_sd              =   2.7014497228854E-01
(PID.TID 0000.0001) %MON dynstat_salt_del2            =   4.6763610836136E-07
(PID.TID 0000.0001) %MON advcfl_uvel_max              =   9.7096224802806E-04
(PID.TID 0000.0001) %MON advcfl_vvel_max              =   8.4029354147741E-04
(PID.TID 0000.0001) %MON advcfl_wvel_max              =   1.8456775787765E-03
(PID.TID 0000.0001) %MON advcfl_W_hf_max              =   1.8456775787765E-03
(PID.TID 0000.0001) %MON pe_b_mean                    =  -6.8259595990647E-01
(PID.TID 0000.0001) %MON ke_max                       =   2.8980124488451E-05
(PID.TID 0000.0001) %MON ke_mean                      =   4.5516080800608E-08
(PID.TID 0000.0001) %MON ke_vol                       =   4.6182941359238E+12
(PID.TID 0000.0001) // =======================================================
(PID.TID 0000.0001) // End MONITOR dynamic field statistics
(PID.TID 0000.0001) // =======================================================
(PID.TID 0000.0001) // =======================================================
(PID.TID 0000.0001) // Begin OBCS MONITOR field statistics
(PID.TID 0000.0001) // =======================================================
(PID.TID 0000.0001) %MON obc_N_vVel_max               =  -6.6092527148985E-08
(PID.TID 0000.0001) %MON obc_N_vVel_min               =  -6.6092527148985E-08
(PID.TID 0000.0001) %MON obc_N_vVel_mean              =  -6.6092527148985E-08
(PID.TID 0000.0001) %MON obc_N_vVel_sd                =   1.0433733987432E-14
(PID.TID 0000.0001) %MON obc_N_vVel_Int               =  -4.3621067918330E+00
(PID.TID 0000.0001) // =======================================================
(PID.TID 0000.0001) // End OBCS MONITOR field statistics
(PID.TID 0000.0001) // =======================================================
 cg2d: Sum(rhs),rhsMax =   3.01108476683243E+00  4.53048150765824E+02
(PID.TID 0000.0001)      cg2d_init_res =   1.49657124848878E-06
(PID.TID 0000.0001)      cg2d_iters(min,last) =      -1      72
(PID.TID 0000.0001)      cg2d_last_res =   7.57376882204483E-12
(PID.TID 0000.0001) // =======================================================
(PID.TID 0000.0001) // Begin MONITOR dynamic field statistics
(PID.TID 0000.0001) // =======================================================
(PID.TID 0000.0001) %MON time_tsnumber                =                   713
(PID.TID 0000.0001) %MON time_secondsf                =   7.1300000000000E+04
(PID.TID 0000.0001) %MON dynstat_eta_max              =   5.7974478937375E+00
(PID.TID 0000.0001) %MON dynstat_eta_min              =  -1.4174976870132E+01
(PID.TID 0000.0001) %MON dynstat_eta_mean             =  -2.5262340470603E+00
(PID.TID 0000.0001) %MON dynstat_eta_sd               =   4.9417128422579E+00
(PID.TID 0000.0001) %MON dynstat_eta_del2             =   1.9058194220793E-01
(PID.TID 0000.0001) %MON dynstat_uvel_max             =   3.0161216490594E-03
(PID.TID 0000.0001) %MON dynstat_uvel_min             =  -9.7375840663814E-03
(PID.TID 0000.0001) %MON dynstat_uvel_mean            =  -1.1555487297792E-09
(PID.TID 0000.0001) %MON dynstat_uvel_sd              =   2.6192927895168E-04
(PID.TID 0000.0001) %MON dynstat_uvel_del2            =   4.5243127928732E-07
(PID.TID 0000.0001) %MON dynstat_vvel_max             =   8.4206788566827E-03
(PID.TID 0000.0001) %MON dynstat_vvel_min             =  -2.7655254532801E-03
(PID.TID 0000.0001) %MON dynstat_vvel_mean            =  -5.2396095999553E-08
(PID.TID 0000.0001) %MON dynstat_vvel_sd              =   1.5531743387606E-04
(PID.TID 0000.0001) %MON dynstat_vvel_del2            =   4.2776410952127E-07
(PID.TID 0000.0001) %MON dynstat_wvel_max             =   3.7035611880903E-04
(PID.TID 0000.0001) %MON dynstat_wvel_min             =  -3.5922224832577E-04
(PID.TID 0000.0001) %MON dynstat_wvel_mean            =   1.7236478578647E-10
(PID.TID 0000.0001) %MON dynstat_wvel_sd              =   1.0145795013203E-05
(PID.TID 0000.0001) %MON dynstat_wvel_del2            =   4.1259551352310E-08
(PID.TID 0000.0001) %MON dynstat_theta_max            =   1.2000000000000E+00
(PID.TID 0000.0001) %MON dynstat_theta_min            =  -1.0000000000000E+00
(PID.TID 0000.0001) %MON dynstat_theta_mean           =   5.6534113497684E-01
(PID.TID 0000.0001) %MON dynstat_theta_sd             =   8.4902640280497E-01
(PID.TID 0000.0001) %MON dynstat_theta_del2           =   1.2007280304394E-06
(PID.TID 0000.0001) %MON dynstat_salt_max             =   3.4700000000000E+01
(PID.TID 0000.0001) %MON dynstat_salt_min             =   3.4000000000000E+01
(PID.TID 0000.0001) %MON dynstat_salt_mean            =   3.4498050178434E+01
(PID.TID 0000.0001) %MON dynstat_salt_sd              =   2.7014493356824E-01
(PID.TID 0000.0001) %MON dynstat_salt_del2            =   4.6864623798837E-07
(PID.TID 0000.0001) %MON advcfl_uvel_max              =   9.7375840663814E-04
(PID.TID 0000.0001) %MON advcfl_vvel_max              =   8.4206788566827E-04
(PID.TID 0000.0001) %MON advcfl_wvel_max              =   1.8517805940451E-03
(PID.TID 0000.0001) %MON advcfl_W_hf_max              =   1.8517805940451E-03
(PID.TID 0000.0001) %MON pe_b_mean                    =  -6.8259515777389E-01
(PID.TID 0000.0001) %MON ke_max                       =   2.9146328810600E-05
(PID.TID 0000.0001) %MON ke_mean                      =   4.5719999604557E-08
(PID.TID 0000.0001) %MON ke_vol                       =   4.6182941528310E+12
(PID.TID 0000.0001) // =======================================================
(PID.TID 0000.0001) // End MONITOR dynamic field statistics
(PID.TID 0000.0001) // =======================================================
(PID.TID 0000.0001) // =======================================================
(PID.TID 0000.0001) // Begin OBCS MONITOR field statistics
(PID.TID 0000.0001) // =======================================================
(PID.TID 0000.0001) %MON obc_N_vVel_max               =  -6.5997947580334E-08
(PID.TID 0000.0001) %MON obc_N_vVel_min               =  -6.5997947580337E-08
(PID.TID 0000.0001) %MON obc_N_vVel_mean              =  -6.5997947580334E-08
(PID.TID 0000.0001) %MON obc_N_vVel_sd                =   1.9459014222362E-14
(PID.TID 0000.0001) %MON obc_N_vVel_Int               =  -4.3558645403021E+00
(PID.TID 0000.0001) // =======================================================
(PID.TID 0000.0001) // End OBCS MONITOR field statistics
(PID.TID 0000.0001) // =======================================================
 cg2d: Sum(rhs),rhsMax =   3.01108142534711E+00  4.53048141732473E+02
(PID.TID 0000.0001)      cg2d_init_res =   1.48960331606038E-06
(PID.TID 0000.0001)      cg2d_iters(min,last) =      -1      72
(PID.TID 0000.0001)      cg2d_last_res =   7.58573269795630E-12
(PID.TID 0000.0001) // =======================================================
(PID.TID 0000.0001) // Begin MONITOR dynamic field statistics
(PID.TID 0000.0001) // =======================================================
(PID.TID 0000.0001) %MON time_tsnumber                =                   714
(PID.TID 0000.0001) %MON time_secondsf                =   7.1400000000000E+04
(PID.TID 0000.0001) %MON dynstat_eta_max              =   5.7974505820526E+00
(PID.TID 0000.0001) %MON dynstat_eta_min              =  -1.4174972355753E+01
(PID.TID 0000.0001) %MON dynstat_eta_mean             =  -2.5262311932568E+00
(PID.TID 0000.0001) %MON dynstat_eta_sd               =   4.9417119608772E+00
(PID.TID 0000.0001) %MON dynstat_eta_del2             =   1.9058194768697E-01
(PID.TID 0000.0001) %MON dynstat_uvel_max             =   3.0210814581189E-03
(PID.TID 0000.0001) %MON dynstat_uvel_min             =  -9.7656105499322E-03
(PID.TID 0000.0001) %MON dynstat_uvel_mean            =  -1.1569372670813E-09
(PID.TID 0000.0001) %MON dynstat_uvel_sd              =   2.6254981117565E-04
(PID.TID 0000.0001) %MON dynstat_uvel_del2            =   4.5339655813573E-07
(PID.TID 0000.0001) %MON dynstat_vvel_max             =   8.4384490173748E-03
(PID.TID 0000.0001) %MON dynstat_vvel_min             =  -2.7733748317615E-03
(PID.TID 0000.0001) %MON dynstat_vvel_mean            =  -5.2185750694282E-08
(PID.TID 0000.0001) %MON dynstat_vvel_sd              =   1.5561684126978E-04
(PID.TID 0000.0001) %MON dynstat_vvel_del2            =   4.2839563778842E-07
(PID.TID 0000.0001) %MON dynstat_wvel_max             =   3.7157943452959E-04
(PID.TID 0000.0001) %MON dynstat_wvel_min             =  -3.6044322936331E-04
(PID.TID 0000.0001) %MON dynstat_wvel_mean            =   1.7287785819669E-10
(PID.TID 0000.0001) %MON dynstat_wvel_sd              =   1.0050661390112E-05
(PID.TID 0000.0001) %MON dynstat_wvel_del2            =   4.0532482315210E-08
(PID.TID 0000.0001) %MON dynstat_theta_max            =   1.2000000000000E+00
(PID.TID 0000.0001) %MON dynstat_theta_min            =  -1.0000000000000E+00
(PID.TID 0000.0001) %MON dynstat_theta_mean           =   5.6534082301288E-01
(PID.TID 0000.0001) %MON dynstat_theta_sd             =   8.4902629360251E-01
(PID.TID 0000.0001) %MON dynstat_theta_del2           =   1.2032435665488E-06
(PID.TID 0000.0001) %MON dynstat_salt_max             =   3.4700000000000E+01
(PID.TID 0000.0001) %MON dynstat_salt_min             =   3.4000000000000E+01
(PID.TID 0000.0001) %MON dynstat_salt_mean            =   3.4498050054443E+01
(PID.TID 0000.0001) %MON dynstat_salt_sd              =   2.7014489476090E-01
(PID.TID 0000.0001) %MON dynstat_salt_del2            =   4.6963713598179E-07
(PID.TID 0000.0001) %MON advcfl_uvel_max              =   9.7656105499322E-04
(PID.TID 0000.0001) %MON advcfl_vvel_max              =   8.4384490173748E-04
(PID.TID 0000.0001) %MON advcfl_wvel_max              =   1.8578971726480E-03
(PID.TID 0000.0001) %MON advcfl_W_hf_max              =   1.8578971726480E-03
(PID.TID 0000.0001) %MON pe_b_mean                    =  -6.8259435445478E-01
(PID.TID 0000.0001) %MON ke_max                       =   2.9313403932564E-05
(PID.TID 0000.0001) %MON ke_mean                      =   4.5926215230545E-08
(PID.TID 0000.0001) %MON ke_vol                       =   4.6182941697605E+12
(PID.TID 0000.0001) // =======================================================
(PID.TID 0000.0001) // End MONITOR dynamic field statistics
(PID.TID 0000.0001) // =======================================================
(PID.TID 0000.0001) // =======================================================
(PID.TID 0000.0001) // Begin OBCS MONITOR field statistics
(PID.TID 0000.0001) // =======================================================
(PID.TID 0000.0001) %MON obc_N_vVel_max               =  -6.5856267829970E-08
(PID.TID 0000.0001) %MON obc_N_vVel_min               =  -6.5856267829971E-08
(PID.TID 0000.0001) %MON obc_N_vVel_mean              =  -6.5856267829970E-08
(PID.TID 0000.0001) %MON obc_N_vVel_sd                =   1.5763603177720E-14
(PID.TID 0000.0001) %MON obc_N_vVel_Int               =  -4.3465136767780E+00
(PID.TID 0000.0001) // =======================================================
(PID.TID 0000.0001) // End OBCS MONITOR field statistics
(PID.TID 0000.0001) // =======================================================
 cg2d: Sum(rhs),rhsMax =   3.01107807931194E+00  4.53048132721464E+02
(PID.TID 0000.0001)      cg2d_init_res =   1.48498701126523E-06
(PID.TID 0000.0001)      cg2d_iters(min,last) =      -1      72
(PID.TID 0000.0001)      cg2d_last_res =   7.59833975290519E-12
(PID.TID 0000.0001) // =======================================================
(PID.TID 0000.0001) // Begin MONITOR dynamic field statistics
(PID.TID 0000.0001) // =======================================================
(PID.TID 0000.0001) %MON time_tsnumber                =                   715
(PID.TID 0000.0001) %MON time_secondsf                =   7.1500000000000E+04
(PID.TID 0000.0001) %MON dynstat_eta_max              =   5.7974532706155E+00
(PID.TID 0000.0001) %MON dynstat_eta_min              =  -1.4174967839949E+01
(PID.TID 0000.0001) %MON dynstat_eta_mean             =  -2.5262283357607E+00
(PID.TID 0000.0001) %MON dynstat_eta_sd               =   4.9417110785407E+00
(PID.TID 0000.0001) %MON dynstat_eta_del2             =   1.9058195318079E-01
(PID.TID 0000.0001) %MON dynstat_uvel_max             =   3.0260459597038E-03
(PID.TID 0000.0001) %MON dynstat_uvel_min             =  -9.7937020162480E-03
(PID.TID 0000.0001) %MON dynstat_uvel_mean            =  -1.1581914935048E-09
(PID.TID 0000.0001) %MON dynstat_uvel_sd              =   2.6317304617815E-04
(PID.TID 0000.0001) %MON dynstat_uvel_del2            =   4.5436465896034E-07
(PID.TID 0000.0001) %MON dynstat_vvel_max             =   8.4562459080411E-03
(PID.TID 0000.0001) %MON dynstat_vvel_min             =  -2.7812362448030E-03
(PID.TID 0000.0001) %MON dynstat_vvel_mean            =  -5.1930423756708E-08
(PID.TID 0000.0001) %MON dynstat_vvel_sd              =   1.5592519668773E-04
(PID.TID 0000.0001) %MON dynstat_vvel_del2            =   4.2910380493354E-07
(PID.TID 0000.0001) %MON dynstat_wvel_max             =   3.7280546945803E-04
(PID.TID 0000.0001) %MON dynstat_wvel_min             =  -3.6166877852073E-04
(PID.TID 0000.0001) %MON dynstat_wvel_mean            =   1.7336210917239E-10
(PID.TID 0000.0001) %MON dynstat_wvel_sd              =   9.9891949817174E-06
(PID.TID 0000.0001) %MON dynstat_wvel_del2            =   4.0032906453709E-08
(PID.TID 0000.0001) %MON dynstat_theta_max            =   1.2000000000000E+00
(PID.TID 0000.0001) %MON dynstat_theta_min            =  -1.0000000000000E+00
(PID.TID 0000.0001) %MON dynstat_theta_mean           =   5.6534051056773E-01
(PID.TID 0000.0001) %MON dynstat_theta_sd             =   8.4902618417947E-01
(PID.TID 0000.0001) %MON dynstat_theta_del2           =   1.2056651452836E-06
(PID.TID 0000.0001) %MON dynstat_salt_max             =   3.4700000000000E+01
(PID.TID 0000.0001) %MON dynstat_salt_min             =   3.4000000000000E+01
(PID.TID 0000.0001) %MON dynstat_salt_mean            =   3.4498049930263E+01
(PID.TID 0000.0001) %MON dynstat_salt_sd              =   2.7014485586303E-01
(PID.TID 0000.0001) %MON dynstat_salt_del2            =   4.7060442350217E-07
(PID.TID 0000.0001) %MON advcfl_uvel_max              =   9.7937020162480E-04
(PID.TID 0000.0001) %MON advcfl_vvel_max              =   8.4562459080411E-04
(PID.TID 0000.0001) %MON advcfl_wvel_max              =   1.8640273472902E-03
(PID.TID 0000.0001) %MON advcfl_W_hf_max              =   1.8640273472902E-03
(PID.TID 0000.0001) %MON pe_b_mean                    =  -6.8259354995308E-01
(PID.TID 0000.0001) %MON ke_max                       =   2.9481353649026E-05
(PID.TID 0000.0001) %MON ke_mean                      =   4.6134991378106E-08
(PID.TID 0000.0001) %MON ke_vol                       =   4.6182941867121E+12
(PID.TID 0000.0001) // =======================================================
(PID.TID 0000.0001) // End MONITOR dynamic field statistics
(PID.TID 0000.0001) // =======================================================
(PID.TID 0000.0001) // =======================================================
(PID.TID 0000.0001) // Begin OBCS MONITOR field statistics
(PID.TID 0000.0001) // =======================================================
(PID.TID 0000.0001) %MON obc_N_vVel_max               =  -6.5671110260835E-08
(PID.TID 0000.0001) %MON obc_N_vVel_min               =  -6.5671110260836E-08
(PID.TID 0000.0001) %MON obc_N_vVel_mean              =  -6.5671110260835E-08
(PID.TID 0000.0001) %MON obc_N_vVel_sd                =   1.3053503572901E-14
(PID.TID 0000.0001) %MON obc_N_vVel_Int               =  -4.3342932772151E+00
(PID.TID 0000.0001) // =======================================================
(PID.TID 0000.0001) // End OBCS MONITOR field statistics
(PID.TID 0000.0001) // =======================================================
 cg2d: Sum(rhs),rhsMax =   3.01107472876018E+00  4.53048123731900E+02
(PID.TID 0000.0001)      cg2d_init_res =   1.48325024314456E-06
(PID.TID 0000.0001)      cg2d_iters(min,last) =      -1      72
(PID.TID 0000.0001)      cg2d_last_res =   7.61172613783151E-12
(PID.TID 0000.0001) // =======================================================
(PID.TID 0000.0001) // Begin MONITOR dynamic field statistics
(PID.TID 0000.0001) // =======================================================
(PID.TID 0000.0001) %MON time_tsnumber                =                   716
(PID.TID 0000.0001) %MON time_secondsf                =   7.1600000000000E+04
(PID.TID 0000.0001) %MON dynstat_eta_max              =   5.7974559594599E+00
(PID.TID 0000.0001) %MON dynstat_eta_min              =  -1.4174963322634E+01
(PID.TID 0000.0001) %MON dynstat_eta_mean             =  -2.5262254745951E+00
(PID.TID 0000.0001) %MON dynstat_eta_sd               =   4.9417101952504E+00
(PID.TID 0000.0001) %MON dynstat_eta_del2             =   1.9058195868938E-01
(PID.TID 0000.0001) %MON dynstat_uvel_max             =   3.0310151073163E-03
(PID.TID 0000.0001) %MON dynstat_uvel_min             =  -9.8218585500112E-03
(PID.TID 0000.0001) %MON dynstat_uvel_mean            =  -1.1592388804663E-09
(PID.TID 0000.0001) %MON dynstat_uvel_sd              =   2.6379899412972E-04
(PID.TID 0000.0001) %MON dynstat_uvel_del2            =   4.5533559838052E-07
(PID.TID 0000.0001) %MON dynstat_vvel_max             =   8.4740695388730E-03
(PID.TID 0000.0001) %MON dynstat_vvel_min             =  -2.7891097271446E-03
(PID.TID 0000.0001) %MON dynstat_vvel_mean            =  -5.1636782990845E-08
(PID.TID 0000.0001) %MON dynstat_vvel_sd              =   1.5624344530067E-04
(PID.TID 0000.0001) %MON dynstat_vvel_del2            =   4.2989685365422E-07
(PID.TID 0000.0001) %MON dynstat_wvel_max             =   3.7403423012933E-04
(PID.TID 0000.0001) %MON dynstat_wvel_min             =  -3.6289890505103E-04
(PID.TID 0000.0001) %MON dynstat_wvel_mean            =   1.7380704947192E-10
(PID.TID 0000.0001) %MON dynstat_wvel_sd              =   9.9662499067344E-06
(PID.TID 0000.0001) %MON dynstat_wvel_del2            =   3.9807093362751E-08
(PID.TID 0000.0001) %MON dynstat_theta_max            =   1.2000000000000E+00
(PID.TID 0000.0001) %MON dynstat_theta_min            =  -1.0000000000000E+00
(PID.TID 0000.0001) %MON dynstat_theta_mean           =   5.6534019765261E-01
(PID.TID 0000.0001) %MON dynstat_theta_sd             =   8.4902607452252E-01
(PID.TID 0000.0001) %MON dynstat_theta_del2           =   1.2079837267444E-06
(PID.TID 0000.0001) %MON dynstat_salt_max             =   3.4700000000000E+01
(PID.TID 0000.0001) %MON dynstat_salt_min             =   3.4000000000000E+01
(PID.TID 0000.0001) %MON dynstat_salt_mean            =   3.4498049805898E+01
(PID.TID 0000.0001) %MON dynstat_salt_sd              =   2.7014481687037E-01
(PID.TID 0000.0001) %MON dynstat_salt_del2            =   4.7154567405869E-07
(PID.TID 0000.0001) %MON advcfl_uvel_max              =   9.8218585500112E-04
(PID.TID 0000.0001) %MON advcfl_vvel_max              =   8.4740695388730E-04
(PID.TID 0000.0001) %MON advcfl_wvel_max              =   1.8701711506467E-03
(PID.TID 0000.0001) %MON advcfl_W_hf_max              =   1.8701711506467E-03
(PID.TID 0000.0001) %MON pe_b_mean                    =  -6.8259274427064E-01
(PID.TID 0000.0001) %MON ke_max                       =   2.9650181762463E-05
(PID.TID 0000.0001) %MON ke_mean                      =   4.6346491587154E-08
(PID.TID 0000.0001) %MON ke_vol                       =   4.6182942036856E+12
(PID.TID 0000.0001) // =======================================================
(PID.TID 0000.0001) // End MONITOR dynamic field statistics
(PID.TID 0000.0001) // =======================================================
(PID.TID 0000.0001) // =======================================================
(PID.TID 0000.0001) // Begin OBCS MONITOR field statistics
(PID.TID 0000.0001) // =======================================================
(PID.TID 0000.0001) %MON obc_N_vVel_max               =  -6.5447599562374E-08
(PID.TID 0000.0001) %MON obc_N_vVel_min               =  -6.5447599562374E-08
(PID.TID 0000.0001) %MON obc_N_vVel_mean              =  -6.5447599562374E-08
(PID.TID 0000.0001) %MON obc_N_vVel_sd                =  -2.1299244440967E-29
(PID.TID 0000.0001) %MON obc_N_vVel_Int               =  -4.3195415711167E+00
(PID.TID 0000.0001) // =======================================================
(PID.TID 0000.0001) // End OBCS MONITOR field statistics
(PID.TID 0000.0001) // =======================================================
 cg2d: Sum(rhs),rhsMax =   3.01107137372168E+00  4.53048114762764E+02
(PID.TID 0000.0001)      cg2d_init_res =   1.48470444130819E-06
(PID.TID 0000.0001)      cg2d_iters(min,last) =      -1      72
(PID.TID 0000.0001)      cg2d_last_res =   7.62604801308069E-12
(PID.TID 0000.0001) // =======================================================
(PID.TID 0000.0001) // Begin MONITOR dynamic field statistics
(PID.TID 0000.0001) // =======================================================
(PID.TID 0000.0001) %MON time_tsnumber                =                   717
(PID.TID 0000.0001) %MON time_secondsf                =   7.1700000000000E+04
(PID.TID 0000.0001) %MON dynstat_eta_max              =   5.7974586486246E+00
(PID.TID 0000.0001) %MON dynstat_eta_min              =  -1.4174958803677E+01
(PID.TID 0000.0001) %MON dynstat_eta_mean             =  -2.5262226097791E+00
(PID.TID 0000.0001) %MON dynstat_eta_sd               =   4.9417093110040E+00
(PID.TID 0000.0001) %MON dynstat_eta_del2             =   1.9058196421266E-01
(PID.TID 0000.0001) %MON dynstat_uvel_max             =   3.0359888542115E-03
(PID.TID 0000.0001) %MON dynstat_uvel_min             =  -9.8500802351635E-03
(PID.TID 0000.0001) %MON dynstat_uvel_mean            =  -1.1600191689954E-09
(PID.TID 0000.0001) %MON dynstat_uvel_sd              =   2.6442766530656E-04
(PID.TID 0000.0001) %MON dynstat_uvel_del2            =   4.5630939853677E-07
(PID.TID 0000.0001) %MON dynstat_vvel_max             =   8.4919199191520E-03
(PID.TID 0000.0001) %MON dynstat_vvel_min             =  -2.7969953139086E-03
(PID.TID 0000.0001) %MON dynstat_vvel_mean            =  -5.1312790402621E-08
(PID.TID 0000.0001) %MON dynstat_vvel_sd              =   1.5657181406443E-04
(PID.TID 0000.0001) %MON dynstat_vvel_del2            =   4.3077605083375E-07
(PID.TID 0000.0001) %MON dynstat_wvel_max             =   3.7526572308615E-04
(PID.TID 0000.0001) %MON dynstat_wvel_min             =  -3.6413361810660E-04
(PID.TID 0000.0001) %MON dynstat_wvel_mean            =   1.7420376918666E-10
(PID.TID 0000.0001) %MON dynstat_wvel_sd              =   9.9830776512984E-06
(PID.TID 0000.0001) %MON dynstat_wvel_del2            =   3.9873917917708E-08
(PID.TID 0000.0001) %MON dynstat_theta_max            =   1.2000000000000E+00
(PID.TID 0000.0001) %MON dynstat_theta_min            =  -1.0000000000000E+00
(PID.TID 0000.0001) %MON dynstat_theta_mean           =   5.6533988427979E-01
(PID.TID 0000.0001) %MON dynstat_theta_sd             =   8.4902596461217E-01
(PID.TID 0000.0001) %MON dynstat_theta_del2           =   1.2101986492598E-06
(PID.TID 0000.0001) %MON dynstat_salt_max             =   3.4700000000000E+01
(PID.TID 0000.0001) %MON dynstat_salt_min             =   3.4000000000000E+01
(PID.TID 0000.0001) %MON dynstat_salt_mean            =   3.4498049681351E+01
(PID.TID 0000.0001) %MON dynstat_salt_sd              =   2.7014477777659E-01
(PID.TID 0000.0001) %MON dynstat_salt_del2            =   4.7246082080619E-07
(PID.TID 0000.0001) %MON advcfl_uvel_max              =   9.8500802351635E-04
(PID.TID 0000.0001) %MON advcfl_vvel_max              =   8.4919199191520E-04
(PID.TID 0000.0001) %MON advcfl_wvel_max              =   1.8763286154307E-03
(PID.TID 0000.0001) %MON advcfl_W_hf_max              =   1.8763286154307E-03
(PID.TID 0000.0001) %MON pe_b_mean                    =  -6.8259193740853E-01
(PID.TID 0000.0001) %MON ke_max                       =   2.9819892083022E-05
(PID.TID 0000.0001) %MON ke_mean                      =   4.6560768501939E-08
(PID.TID 0000.0001) %MON ke_vol                       =   4.6182942206809E+12
(PID.TID 0000.0001) // =======================================================
(PID.TID 0000.0001) // End MONITOR dynamic field statistics
(PID.TID 0000.0001) // =======================================================
(PID.TID 0000.0001) // =======================================================
(PID.TID 0000.0001) // Begin OBCS MONITOR field statistics
(PID.TID 0000.0001) // =======================================================
(PID.TID 0000.0001) %MON obc_N_vVel_max               =  -6.5192161470536E-08
(PID.TID 0000.0001) %MON obc_N_vVel_min               =  -6.5192161470537E-08
(PID.TID 0000.0001) %MON obc_N_vVel_mean              =  -6.5192161470537E-08
(PID.TID 0000.0001) %MON obc_N_vVel_sd                =  -3.6997576454865E-28
(PID.TID 0000.0001) %MON obc_N_vVel_Int               =  -4.3026826570555E+00
(PID.TID 0000.0001) // =======================================================
(PID.TID 0000.0001) // End OBCS MONITOR field statistics
(PID.TID 0000.0001) // =======================================================
 cg2d: Sum(rhs),rhsMax =   3.01106801421548E+00  4.53048105812894E+02
(PID.TID 0000.0001)      cg2d_init_res =   1.48936460205549E-06
(PID.TID 0000.0001)      cg2d_iters(min,last) =      -1      72
(PID.TID 0000.0001)      cg2d_last_res =   7.64102647320625E-12
(PID.TID 0000.0001) // =======================================================
(PID.TID 0000.0001) // Begin MONITOR dynamic field statistics
(PID.TID 0000.0001) // =======================================================
(PID.TID 0000.0001) %MON time_tsnumber                =                   718
(PID.TID 0000.0001) %MON time_secondsf                =   7.1800000000000E+04
(PID.TID 0000.0001) %MON dynstat_eta_max              =   5.7974613381782E+00
(PID.TID 0000.0001) %MON dynstat_eta_min              =  -1.4174954282945E+01
(PID.TID 0000.0001) %MON dynstat_eta_mean             =  -2.5262197413224E+00
(PID.TID 0000.0001) %MON dynstat_eta_sd               =   4.9417084258016E+00
(PID.TID 0000.0001) %MON dynstat_eta_del2             =   1.9058196975087E-01
(PID.TID 0000.0001) %MON dynstat_uvel_max             =   3.0409671534208E-03
(PID.TID 0000.0001) %MON dynstat_uvel_min             =  -9.8783671550997E-03
(PID.TID 0000.0001) %MON dynstat_uvel_mean            =  -1.1604777497200E-09
(PID.TID 0000.0001) %MON dynstat_uvel_sd              =   2.6505907000770E-04
(PID.TID 0000.0001) %MON dynstat_uvel_del2            =   4.5728608873832E-07
(PID.TID 0000.0001) %MON dynstat_vvel_max             =   8.5097970573020E-03
(PID.TID 0000.0001) %MON dynstat_vvel_min             =  -2.8048930405093E-03
(PID.TID 0000.0001) %MON dynstat_vvel_mean            =  -5.0967437368294E-08
(PID.TID 0000.0001) %MON dynstat_vvel_sd              =   1.5690981000888E-04
(PID.TID 0000.0001) %MON dynstat_vvel_del2            =   4.3173569069553E-07
(PID.TID 0000.0001) %MON dynstat_wvel_max             =   3.7649995485795E-04
(PID.TID 0000.0001) %MON dynstat_wvel_min             =  -3.6537292675198E-04
(PID.TID 0000.0001) %MON dynstat_wvel_mean            =   1.7454448430934E-10
(PID.TID 0000.0001) %MON dynstat_wvel_sd              =   1.0037211272254E-05
(PID.TID 0000.0001) %MON dynstat_wvel_del2            =   4.0221866456555E-08
(PID.TID 0000.0001) %MON dynstat_theta_max            =   1.2000000000000E+00
(PID.TID 0000.0001) %MON dynstat_theta_min            =  -1.0000000000000E+00
(PID.TID 0000.0001) %MON dynstat_theta_mean           =   5.6533957046180E-01
(PID.TID 0000.0001) %MON dynstat_theta_sd             =   8.4902585442643E-01
(PID.TID 0000.0001) %MON dynstat_theta_del2           =   1.2123173735418E-06
(PID.TID 0000.0001) %MON dynstat_salt_max             =   3.4700000000000E+01
(PID.TID 0000.0001) %MON dynstat_salt_min             =   3.4000000000000E+01
(PID.TID 0000.0001) %MON dynstat_salt_mean            =   3.4498049556627E+01
(PID.TID 0000.0001) %MON dynstat_salt_sd              =   2.7014473857461E-01
(PID.TID 0000.0001) %MON dynstat_salt_del2            =   4.7335181431575E-07
(PID.TID 0000.0001) %MON advcfl_uvel_max              =   9.8783671550997E-04
(PID.TID 0000.0001) %MON advcfl_vvel_max              =   8.5097970573020E-04
(PID.TID 0000.0001) %MON advcfl_wvel_max              =   1.8824997742898E-03
(PID.TID 0000.0001) %MON advcfl_W_hf_max              =   1.8824997742898E-03
(PID.TID 0000.0001) %MON pe_b_mean                    =  -6.8259112936555E-01
(PID.TID 0000.0001) %MON ke_max                       =   2.9990488429030E-05
(PID.TID 0000.0001) %MON ke_mean                      =   4.6777762460695E-08
(PID.TID 0000.0001) %MON ke_vol                       =   4.6182942376979E+12
(PID.TID 0000.0001) // =======================================================
(PID.TID 0000.0001) // End MONITOR dynamic field statistics
(PID.TID 0000.0001) // =======================================================
(PID.TID 0000.0001) // =======================================================
(PID.TID 0000.0001) // Begin OBCS MONITOR field statistics
(PID.TID 0000.0001) // =======================================================
(PID.TID 0000.0001) %MON obc_N_vVel_max               =  -6.4912319319252E-08
(PID.TID 0000.0001) %MON obc_N_vVel_min               =  -6.4912319319253E-08
(PID.TID 0000.0001) %MON obc_N_vVel_mean              =  -6.4912319319253E-08
(PID.TID 0000.0001) %MON obc_N_vVel_sd                =  -1.6566079009641E-28
(PID.TID 0000.0001) %MON obc_N_vVel_Int               =  -4.2842130750707E+00
(PID.TID 0000.0001) // =======================================================
(PID.TID 0000.0001) // End OBCS MONITOR field statistics
(PID.TID 0000.0001) // =======================================================
 cg2d: Sum(rhs),rhsMax =   3.01106465025051E+00  4.53048096881053E+02
(PID.TID 0000.0001)      cg2d_init_res =   1.49695634028921E-06
(PID.TID 0000.0001)      cg2d_iters(min,last) =      -1      72
(PID.TID 0000.0001)      cg2d_last_res =   7.65669870055681E-12
(PID.TID 0000.0001) // =======================================================
(PID.TID 0000.0001) // Begin MONITOR dynamic field statistics
(PID.TID 0000.0001) // =======================================================
(PID.TID 0000.0001) %MON time_tsnumber                =                   719
(PID.TID 0000.0001) %MON time_secondsf                =   7.1900000000000E+04
(PID.TID 0000.0001) %MON dynstat_eta_max              =   5.7974640282027E+00
(PID.TID 0000.0001) %MON dynstat_eta_min              =  -1.4174949760280E+01
(PID.TID 0000.0001) %MON dynstat_eta_mean             =  -2.5262168692256E+00
(PID.TID 0000.0001) %MON dynstat_eta_sd               =   4.9417075396356E+00
(PID.TID 0000.0001) %MON dynstat_eta_del2             =   1.9058197530407E-01
(PID.TID 0000.0001) %MON dynstat_uvel_max             =   3.0459499577198E-03
(PID.TID 0000.0001) %MON dynstat_uvel_min             =  -9.9067193926707E-03
(PID.TID 0000.0001) %MON dynstat_uvel_mean            =  -1.1605681113523E-09
(PID.TID 0000.0001) %MON dynstat_uvel_sd              =   2.6569321843638E-04
(PID.TID 0000.0001) %MON dynstat_uvel_del2            =   4.5826570227873E-07
(PID.TID 0000.0001) %MON dynstat_vvel_max             =   8.5277009609559E-03
(PID.TID 0000.0001) %MON dynstat_vvel_min             =  -2.8128029426524E-03
(PID.TID 0000.0001) %MON dynstat_vvel_mean            =  -5.0610433782537E-08
(PID.TID 0000.0001) %MON dynstat_vvel_sd              =   1.5725627796875E-04
(PID.TID 0000.0001) %MON dynstat_vvel_del2            =   4.3276368543988E-07
(PID.TID 0000.0001) %MON dynstat_wvel_max             =   3.7773693199897E-04
(PID.TID 0000.0001) %MON dynstat_wvel_min             =  -3.6661683992596E-04
(PID.TID 0000.0001) %MON dynstat_wvel_mean            =   1.7482398527304E-10
(PID.TID 0000.0001) %MON dynstat_wvel_sd              =   1.0122823185260E-05
(PID.TID 0000.0001) %MON dynstat_wvel_del2            =   4.0811090353375E-08
(PID.TID 0000.0001) %MON dynstat_theta_max            =   1.2000000000000E+00
(PID.TID 0000.0001) %MON dynstat_theta_min            =  -1.0000000000000E+00
(PID.TID 0000.0001) %MON dynstat_theta_mean           =   5.6533925621128E-01
(PID.TID 0000.0001) %MON dynstat_theta_sd             =   8.4902574394730E-01
(PID.TID 0000.0001) %MON dynstat_theta_del2           =   1.2143550332415E-06
(PID.TID 0000.0001) %MON dynstat_salt_max             =   3.4700000000000E+01
(PID.TID 0000.0001) %MON dynstat_salt_min             =   3.4000000000000E+01
(PID.TID 0000.0001) %MON dynstat_salt_mean            =   3.4498049431729E+01
(PID.TID 0000.0001) %MON dynstat_salt_sd              =   2.7014469925867E-01
(PID.TID 0000.0001) %MON dynstat_salt_del2            =   4.7422258978182E-07
(PID.TID 0000.0001) %MON advcfl_uvel_max              =   9.9067193926707E-04
(PID.TID 0000.0001) %MON advcfl_vvel_max              =   8.5277009609559E-04
(PID.TID 0000.0001) %MON advcfl_wvel_max              =   1.8886846599948E-03
(PID.TID 0000.0001) %MON advcfl_W_hf_max              =   1.8886846599948E-03
(PID.TID 0000.0001) %MON pe_b_mean                    =  -6.8259032013845E-01
(PID.TID 0000.0001) %MON ke_max                       =   3.0161974628091E-05
(PID.TID 0000.0001) %MON ke_mean                      =   4.6997309314367E-08
(PID.TID 0000.0001) %MON ke_vol                       =   4.6182942547365E+12
(PID.TID 0000.0001) // =======================================================
(PID.TID 0000.0001) // End MONITOR dynamic field statistics
(PID.TID 0000.0001) // =======================================================
(PID.TID 0000.0001) // =======================================================
(PID.TID 0000.0001) // Begin OBCS MONITOR field statistics
(PID.TID 0000.0001) // =======================================================
(PID.TID 0000.0001) %MON obc_N_vVel_max               =  -6.4616416826402E-08
(PID.TID 0000.0001) %MON obc_N_vVel_min               =  -6.4616416826402E-08
(PID.TID 0000.0001) %MON obc_N_vVel_mean              =  -6.4616416826402E-08
(PID.TID 0000.0001) %MON obc_N_vVel_sd                =  -5.9953428796797E-29
(PID.TID 0000.0001) %MON obc_N_vVel_Int               =  -4.2646835105425E+00
(PID.TID 0000.0001) // =======================================================
(PID.TID 0000.0001) // End OBCS MONITOR field statistics
(PID.TID 0000.0001) // =======================================================
 cg2d: Sum(rhs),rhsMax =   3.01106128182530E+00  4.53048087965940E+02
(PID.TID 0000.0001)      cg2d_init_res =   1.50695962144983E-06
(PID.TID 0000.0001)      cg2d_iters(min,last) =      -1      72
(PID.TID 0000.0001)      cg2d_last_res =   7.67287328205490E-12
(PID.TID 0000.0001) // =======================================================
(PID.TID 0000.0001) // Begin MONITOR dynamic field statistics
(PID.TID 0000.0001) // =======================================================
(PID.TID 0000.0001) %MON time_tsnumber                =                   720
(PID.TID 0000.0001) %MON time_secondsf                =   7.2000000000000E+04
(PID.TID 0000.0001) %MON dynstat_eta_max              =   5.7974667187881E+00
(PID.TID 0000.0001) %MON dynstat_eta_min              =  -1.4174945235491E+01
(PID.TID 0000.0001) %MON dynstat_eta_mean             =  -2.5262139934800E+00
(PID.TID 0000.0001) %MON dynstat_eta_sd               =   4.9417066524961E+00
(PID.TID 0000.0001) %MON dynstat_eta_del2             =   1.9058198087228E-01
(PID.TID 0000.0001) %MON dynstat_uvel_max             =   3.0509372196708E-03
(PID.TID 0000.0001) %MON dynstat_uvel_min             =  -9.9351370300749E-03
(PID.TID 0000.0001) %MON dynstat_uvel_mean            =  -1.1602517615173E-09
(PID.TID 0000.0001) %MON dynstat_uvel_sd              =   2.6633012054108E-04
(PID.TID 0000.0001) %MON dynstat_uvel_del2            =   4.5924827411974E-07
(PID.TID 0000.0001) %MON dynstat_vvel_max             =   8.5456316369248E-03
(PID.TID 0000.0001) %MON dynstat_vvel_min             =  -2.8207250560994E-03
(PID.TID 0000.0001) %MON dynstat_vvel_mean            =  -5.0251858619257E-08
(PID.TID 0000.0001) %MON dynstat_vvel_sd              =   1.5760951209750E-04
(PID.TID 0000.0001) %MON dynstat_vvel_del2            =   4.3384268719330E-07
(PID.TID 0000.0001) %MON dynstat_wvel_max             =   3.7897666104243E-04
(PID.TID 0000.0001) %MON dynstat_wvel_min             =  -3.6786536653474E-04
(PID.TID 0000.0001) %MON dynstat_wvel_mean            =   1.7503903059700E-10
(PID.TID 0000.0001) %MON dynstat_wvel_sd              =   1.0231475619796E-05
(PID.TID 0000.0001) %MON dynstat_wvel_del2            =   4.1579833500867E-08
(PID.TID 0000.0001) %MON dynstat_theta_max            =   1.2000000000000E+00
(PID.TID 0000.0001) %MON dynstat_theta_min            =  -1.0000000000000E+00
(PID.TID 0000.0001) %MON dynstat_theta_mean           =   5.6533894154076E-01
(PID.TID 0000.0001) %MON dynstat_theta_sd             =   8.4902563315736E-01
(PID.TID 0000.0001) %MON dynstat_theta_del2           =   1.2163331075525E-06
(PID.TID 0000.0001) %MON dynstat_salt_max             =   3.4700000000000E+01
(PID.TID 0000.0001) %MON dynstat_salt_min             =   3.4000000000000E+01
(PID.TID 0000.0001) %MON dynstat_salt_mean            =   3.4498049306661E+01
(PID.TID 0000.0001) %MON dynstat_salt_sd              =   2.7014465982335E-01
(PID.TID 0000.0001) %MON dynstat_salt_del2            =   4.7507873629600E-07
(PID.TID 0000.0001) %MON advcfl_uvel_max              =   9.9351370300749E-04
(PID.TID 0000.0001) %MON advcfl_vvel_max              =   8.5456316369248E-04
(PID.TID 0000.0001) %MON advcfl_wvel_max              =   1.8948833052122E-03
(PID.TID 0000.0001) %MON advcfl_W_hf_max              =   1.8948833052122E-03
(PID.TID 0000.0001) %MON pe_b_mean                    =  -6.8258950972212E-01
(PID.TID 0000.0001) %MON ke_max                       =   3.0334354516372E-05
(PID.TID 0000.0001) %MON ke_mean                      =   4.7219156740345E-08
(PID.TID 0000.0001) %MON ke_vol                       =   4.6182942717968E+12
(PID.TID 0000.0001) // =======================================================
(PID.TID 0000.0001) // End MONITOR dynamic field statistics
(PID.TID 0000.0001) // =======================================================
(PID.TID 0000.0001) // =======================================================
(PID.TID 0000.0001) // Begin OBCS MONITOR field statistics
(PID.TID 0000.0001) // =======================================================
(PID.TID 0000.0001) %MON obc_N_vVel_max               =  -6.4313344709888E-08
(PID.TID 0000.0001) %MON obc_N_vVel_min               =  -6.4313344709889E-08
(PID.TID 0000.0001) %MON obc_N_vVel_mean              =  -6.4313344709888E-08
(PID.TID 0000.0001) %MON obc_N_vVel_sd                =   1.6945364248090E-14
(PID.TID 0000.0001) %MON obc_N_vVel_Int               =  -4.2446807508526E+00
(PID.TID 0000.0001) // =======================================================
(PID.TID 0000.0001) // End OBCS MONITOR field statistics
(PID.TID 0000.0001) // =======================================================
 cg2d: Sum(rhs),rhsMax =   3.01105790892652E+00  4.53048079066242E+02
(PID.TID 0000.0001)      cg2d_init_res =   1.51865484742935E-06
(PID.TID 0000.0001)      cg2d_iters(min,last) =      -1      72
(PID.TID 0000.0001)      cg2d_last_res =   7.68919390743923E-12
(PID.TID 0000.0001) // =======================================================
(PID.TID 0000.0001) // Begin MONITOR dynamic field statistics
(PID.TID 0000.0001) // =======================================================
(PID.TID 0000.0001) %MON time_tsnumber                =                   721
(PID.TID 0000.0001) %MON time_secondsf                =   7.2100000000000E+04
(PID.TID 0000.0001) %MON dynstat_eta_max              =   5.7974694100497E+00
(PID.TID 0000.0001) %MON dynstat_eta_min              =  -1.4174940708379E+01
(PID.TID 0000.0001) %MON dynstat_eta_mean             =  -2.5262111140674E+00
(PID.TID 0000.0001) %MON dynstat_eta_sd               =   4.9417057643690E+00
(PID.TID 0000.0001) %MON dynstat_eta_del2             =   1.9058198645551E-01
(PID.TID 0000.0001) %MON dynstat_uvel_max             =   3.0559288917154E-03
(PID.TID 0000.0001) %MON dynstat_uvel_min             =  -9.9636201492306E-03
(PID.TID 0000.0001) %MON dynstat_uvel_mean            =  -1.1595053599998E-09
(PID.TID 0000.0001) %MON dynstat_uvel_sd              =   2.6696978583440E-04
(PID.TID 0000.0001) %MON dynstat_uvel_del2            =   4.6023383825889E-07
(PID.TID 0000.0001) %MON dynstat_vvel_max             =   8.5635890914864E-03
(PID.TID 0000.0001) %MON dynstat_vvel_min             =  -2.8286594169007E-03
(PID.TID 0000.0001) %MON dynstat_vvel_mean            =  -4.9901813948973E-08
(PID.TID 0000.0001) %MON dynstat_vvel_sd              =   1.5796741057999E-04
(PID.TID 0000.0001) %MON dynstat_vvel_del2            =   4.3495163297806E-07
(PID.TID 0000.0001) %MON dynstat_wvel_max             =   3.8021914853579E-04
(PID.TID 0000.0001) %MON dynstat_wvel_min             =  -3.6911851535206E-04
(PID.TID 0000.0001) %MON dynstat_wvel_mean            =   1.7518884003883E-10
(PID.TID 0000.0001) %MON dynstat_wvel_sd              =   1.0353105477436E-05
(PID.TID 0000.0001) %MON dynstat_wvel_del2            =   4.2453240742675E-08
(PID.TID 0000.0001) %MON dynstat_theta_max            =   1.2000000000000E+00
(PID.TID 0000.0001) %MON dynstat_theta_min            =  -1.0000000000000E+00
(PID.TID 0000.0001) %MON dynstat_theta_mean           =   5.6533862646227E-01
(PID.TID 0000.0001) %MON dynstat_theta_sd             =   8.4902552204764E-01
(PID.TID 0000.0001) %MON dynstat_theta_del2           =   1.2182771188242E-06
(PID.TID 0000.0001) %MON dynstat_salt_max             =   3.4700000000000E+01
(PID.TID 0000.0001) %MON dynstat_salt_min             =   3.4000000000000E+01
(PID.TID 0000.0001) %MON dynstat_salt_mean            =   3.4498049181427E+01
(PID.TID 0000.0001) %MON dynstat_salt_sd              =   2.7014462026547E-01
(PID.TID 0000.0001) %MON dynstat_salt_del2            =   4.7592694961613E-07
(PID.TID 0000.0001) %MON advcfl_uvel_max              =   9.9636201492306E-04
(PID.TID 0000.0001) %MON advcfl_vvel_max              =   8.5635890914864E-04
(PID.TID 0000.0001) %MON advcfl_wvel_max              =   1.9010957426789E-03
(PID.TID 0000.0001) %MON advcfl_W_hf_max              =   1.9010957426789E-03
(PID.TID 0000.0001) %MON pe_b_mean                    =  -6.8258869810930E-01
(PID.TID 0000.0001) %MON ke_max                       =   3.0507631940338E-05
(PID.TID 0000.0001) %MON ke_mean                      =   4.7442987553975E-08
(PID.TID 0000.0001) %MON ke_vol                       =   4.6182942888787E+12
(PID.TID 0000.0001) // =======================================================
(PID.TID 0000.0001) // End MONITOR dynamic field statistics
(PID.TID 0000.0001) // =======================================================
(PID.TID 0000.0001) // =======================================================
(PID.TID 0000.0001) // Begin OBCS MONITOR field statistics
(PID.TID 0000.0001) // =======================================================
(PID.TID 0000.0001) %MON obc_N_vVel_max               =  -6.4012245923846E-08
(PID.TID 0000.0001) %MON obc_N_vVel_min               =  -6.4012245923848E-08
(PID.TID 0000.0001) %MON obc_N_vVel_mean              =  -6.4012245923848E-08
(PID.TID 0000.0001) %MON obc_N_vVel_sd                =  -1.3568407569801E-28
(PID.TID 0000.0001) %MON obc_N_vVel_Int               =  -4.2248082309740E+00
(PID.TID 0000.0001) // =======================================================
(PID.TID 0000.0001) // End OBCS MONITOR field statistics
(PID.TID 0000.0001) // =======================================================
 cg2d: Sum(rhs),rhsMax =   3.01105453152897E+00  4.53048070180657E+02
(PID.TID 0000.0001)      cg2d_init_res =   1.53120797983429E-06
(PID.TID 0000.0001)      cg2d_iters(min,last) =      -1      72
(PID.TID 0000.0001)      cg2d_last_res =   7.70524810636837E-12
(PID.TID 0000.0001) // =======================================================
(PID.TID 0000.0001) // Begin MONITOR dynamic field statistics
(PID.TID 0000.0001) // =======================================================
(PID.TID 0000.0001) %MON time_tsnumber                =                   722
(PID.TID 0000.0001) %MON time_secondsf                =   7.2200000000000E+04
(PID.TID 0000.0001) %MON dynstat_eta_max              =   5.7974721021110E+00
(PID.TID 0000.0001) %MON dynstat_eta_min              =  -1.4174936178709E+01
(PID.TID 0000.0001) %MON dynstat_eta_mean             =  -2.5262082309591E+00
(PID.TID 0000.0001) %MON dynstat_eta_sd               =   4.9417048752380E+00
(PID.TID 0000.0001) %MON dynstat_eta_del2             =   1.9058199205383E-01
(PID.TID 0000.0001) %MON dynstat_uvel_max             =   3.0609249259790E-03
(PID.TID 0000.0001) %MON dynstat_uvel_min             =  -9.9921688315723E-03
(PID.TID 0000.0001) %MON dynstat_uvel_mean            =  -1.1583200704572E-09
(PID.TID 0000.0001) %MON dynstat_uvel_sd              =   2.6761222319128E-04
(PID.TID 0000.0001) %MON dynstat_uvel_del2            =   4.6122242535446E-07
(PID.TID 0000.0001) %MON dynstat_vvel_max             =   8.5815733301875E-03
(PID.TID 0000.0001) %MON dynstat_vvel_min             =  -2.8366060612486E-03
(PID.TID 0000.0001) %MON dynstat_vvel_mean            =  -4.9570062528148E-08
(PID.TID 0000.0001) %MON dynstat_vvel_sd              =   1.5832765970240E-04
(PID.TID 0000.0001) %MON dynstat_vvel_del2            =   4.3606757118782E-07
(PID.TID 0000.0001) %MON dynstat_wvel_max             =   3.8146440102274E-04
(PID.TID 0000.0001) %MON dynstat_wvel_min             =  -3.7037629508828E-04
(PID.TID 0000.0001) %MON dynstat_wvel_mean            =   1.7527472415399E-10
(PID.TID 0000.0001) %MON dynstat_wvel_sd              =   1.0477068009967E-05
(PID.TID 0000.0001) %MON dynstat_wvel_del2            =   4.3352326254099E-08
(PID.TID 0000.0001) %MON dynstat_theta_max            =   1.2000000000000E+00
(PID.TID 0000.0001) %MON dynstat_theta_min            =  -1.0000000000000E+00
(PID.TID 0000.0001) %MON dynstat_theta_mean           =   5.6533831098708E-01
(PID.TID 0000.0001) %MON dynstat_theta_sd             =   8.4902541061012E-01
(PID.TID 0000.0001) %MON dynstat_theta_del2           =   1.2202147120012E-06
(PID.TID 0000.0001) %MON dynstat_salt_max             =   3.4700000000000E+01
(PID.TID 0000.0001) %MON dynstat_salt_min             =   3.4000000000000E+01
(PID.TID 0000.0001) %MON dynstat_salt_mean            =   3.4498049056030E+01
(PID.TID 0000.0001) %MON dynstat_salt_sd              =   2.7014458058264E-01
(PID.TID 0000.0001) %MON dynstat_salt_del2            =   4.7677450063466E-07
(PID.TID 0000.0001) %MON advcfl_uvel_max              =   9.9921688315723E-04
(PID.TID 0000.0001) %MON advcfl_vvel_max              =   8.5815733301875E-04
(PID.TID 0000.0001) %MON advcfl_wvel_max              =   1.9073220051137E-03
(PID.TID 0000.0001) %MON advcfl_W_hf_max              =   1.9073220051137E-03
(PID.TID 0000.0001) %MON pe_b_mean                    =  -6.8258788529075E-01
(PID.TID 0000.0001) %MON ke_max                       =   3.0681810755936E-05
(PID.TID 0000.0001) %MON ke_mean                      =   4.7668447981605E-08
(PID.TID 0000.0001) %MON ke_vol                       =   4.6182943059824E+12
(PID.TID 0000.0001) // =======================================================
(PID.TID 0000.0001) // End MONITOR dynamic field statistics
(PID.TID 0000.0001) // =======================================================
(PID.TID 0000.0001) // =======================================================
(PID.TID 0000.0001) // Begin OBCS MONITOR field statistics
(PID.TID 0000.0001) // =======================================================
(PID.TID 0000.0001) %MON obc_N_vVel_max               =  -6.3722177267177E-08
(PID.TID 0000.0001) %MON obc_N_vVel_min               =  -6.3722177267178E-08
(PID.TID 0000.0001) %MON obc_N_vVel_mean              =  -6.3722177267178E-08
(PID.TID 0000.0001) %MON obc_N_vVel_sd                =  -1.9405978268437E-28
(PID.TID 0000.0001) %MON obc_N_vVel_Int               =  -4.2056636996337E+00
(PID.TID 0000.0001) // =======================================================
(PID.TID 0000.0001) // End OBCS MONITOR field statistics
(PID.TID 0000.0001) // =======================================================
 cg2d: Sum(rhs),rhsMax =   3.01105114959554E+00  4.53048061307915E+02
(PID.TID 0000.0001)      cg2d_init_res =   1.54374180038496E-06
(PID.TID 0000.0001)      cg2d_iters(min,last) =      -1      72
(PID.TID 0000.0001)      cg2d_last_res =   7.72093753096770E-12
(PID.TID 0000.0001) // =======================================================
(PID.TID 0000.0001) // Begin MONITOR dynamic field statistics
(PID.TID 0000.0001) // =======================================================
(PID.TID 0000.0001) %MON time_tsnumber                =                   723
(PID.TID 0000.0001) %MON time_secondsf                =   7.2300000000000E+04
(PID.TID 0000.0001) %MON dynstat_eta_max              =   5.7974747951228E+00
(PID.TID 0000.0001) %MON dynstat_eta_min              =  -1.4174931646239E+01
(PID.TID 0000.0001) %MON dynstat_eta_mean             =  -2.5262053441171E+00
(PID.TID 0000.0001) %MON dynstat_eta_sd               =   4.9417039850837E+00
(PID.TID 0000.0001) %MON dynstat_eta_del2             =   1.9058199766728E-01
(PID.TID 0000.0001) %MON dynstat_uvel_max             =   3.0659252744698E-03
(PID.TID 0000.0001) %MON dynstat_uvel_min             =  -1.0020783157699E-02
(PID.TID 0000.0001) %MON dynstat_uvel_mean            =  -1.1567081134300E-09
(PID.TID 0000.0001) %MON dynstat_uvel_sd              =   2.6825744065804E-04
(PID.TID 0000.0001) %MON dynstat_uvel_del2            =   4.6221405961624E-07
(PID.TID 0000.0001) %MON dynstat_vvel_max             =   8.5995843580986E-03
(PID.TID 0000.0001) %MON dynstat_vvel_min             =  -2.8445650254456E-03
(PID.TID 0000.0001) %MON dynstat_vvel_mean            =  -4.9265724128831E-08
(PID.TID 0000.0001) %MON dynstat_vvel_sd              =   1.5868793115078E-04
(PID.TID 0000.0001) %MON dynstat_vvel_del2            =   4.3716760758149E-07
(PID.TID 0000.0001) %MON dynstat_wvel_max             =   3.8271242504358E-04
(PID.TID 0000.0001) %MON dynstat_wvel_min             =  -3.7163871437849E-04
(PID.TID 0000.0001) %MON dynstat_wvel_mean            =   1.7530048763036E-10
(PID.TID 0000.0001) %MON dynstat_wvel_sd              =   1.0593098141227E-05
(PID.TID 0000.0001) %MON dynstat_wvel_del2            =   4.4201562903149E-08
(PID.TID 0000.0001) %MON dynstat_theta_max            =   1.2000000000000E+00
(PID.TID 0000.0001) %MON dynstat_theta_min            =  -1.0000000000000E+00
(PID.TID 0000.0001) %MON dynstat_theta_mean           =   5.6533799512538E-01
(PID.TID 0000.0001) %MON dynstat_theta_sd             =   8.4902529884066E-01
(PID.TID 0000.0001) %MON dynstat_theta_del2           =   1.2221742629361E-06
(PID.TID 0000.0001) %MON dynstat_salt_max             =   3.4700000000000E+01
(PID.TID 0000.0001) %MON dynstat_salt_min             =   3.4000000000000E+01
(PID.TID 0000.0001) %MON dynstat_salt_mean            =   3.4498048930473E+01
(PID.TID 0000.0001) %MON dynstat_salt_sd              =   2.7014454077347E-01
(PID.TID 0000.0001) %MON dynstat_salt_del2            =   4.7762860108495E-07
(PID.TID 0000.0001) %MON advcfl_uvel_max              =   1.0020783157699E-03
(PID.TID 0000.0001) %MON advcfl_vvel_max              =   8.5995843580986E-04
(PID.TID 0000.0001) %MON advcfl_wvel_max              =   1.9135621252179E-03
(PID.TID 0000.0001) %MON advcfl_W_hf_max              =   1.9135621252179E-03
(PID.TID 0000.0001) %MON pe_b_mean                    =  -6.8258707125536E-01
(PID.TID 0000.0001) %MON ke_max                       =   3.0856894826547E-05
(PID.TID 0000.0001) %MON ke_mean                      =   4.7895178458393E-08
(PID.TID 0000.0001) %MON ke_vol                       =   4.6182943231081E+12
(PID.TID 0000.0001) // =======================================================
(PID.TID 0000.0001) // End MONITOR dynamic field statistics
(PID.TID 0000.0001) // =======================================================
(PID.TID 0000.0001) // =======================================================
(PID.TID 0000.0001) // Begin OBCS MONITOR field statistics
(PID.TID 0000.0001) // =======================================================
(PID.TID 0000.0001) %MON obc_N_vVel_max               =  -6.3451821335048E-08
(PID.TID 0000.0001) %MON obc_N_vVel_min               =  -6.3451821335050E-08
(PID.TID 0000.0001) %MON obc_N_vVel_mean              =  -6.3451821335048E-08
(PID.TID 0000.0001) %MON obc_N_vVel_sd                =   1.2901536768991E-14
(PID.TID 0000.0001) %MON obc_N_vVel_Int               =  -4.1878202081132E+00
(PID.TID 0000.0001) // =======================================================
(PID.TID 0000.0001) // End OBCS MONITOR field statistics
(PID.TID 0000.0001) // =======================================================
 cg2d: Sum(rhs),rhsMax =   3.01104776307771E+00  4.53048052446811E+02
(PID.TID 0000.0001)      cg2d_init_res =   1.55539541058265E-06
(PID.TID 0000.0001)      cg2d_iters(min,last) =      -1      72
(PID.TID 0000.0001)      cg2d_last_res =   7.73630577477648E-12
(PID.TID 0000.0001) // =======================================================
(PID.TID 0000.0001) // Begin MONITOR dynamic field statistics
(PID.TID 0000.0001) // =======================================================
(PID.TID 0000.0001) %MON time_tsnumber                =                   724
(PID.TID 0000.0001) %MON time_secondsf                =   7.2400000000000E+04
(PID.TID 0000.0001) %MON dynstat_eta_max              =   5.7974774892400E+00
(PID.TID 0000.0001) %MON dynstat_eta_min              =  -1.4174927110694E+01
(PID.TID 0000.0001) %MON dynstat_eta_mean             =  -2.5262024534939E+00
(PID.TID 0000.0001) %MON dynstat_eta_sd               =   4.9417030938826E+00
(PID.TID 0000.0001) %MON dynstat_eta_del2             =   1.9058200329580E-01
(PID.TID 0000.0001) %MON dynstat_uvel_max             =   3.0709298890805E-03
(PID.TID 0000.0001) %MON dynstat_uvel_min             =  -1.0049463207818E-02
(PID.TID 0000.0001) %MON dynstat_uvel_mean            =  -1.1547030431892E-09
(PID.TID 0000.0001) %MON dynstat_uvel_sd              =   2.6890544530306E-04
(PID.TID 0000.0001) %MON dynstat_uvel_del2            =   4.6320875627693E-07
(PID.TID 0000.0001) %MON dynstat_vvel_max             =   8.6176221797902E-03
(PID.TID 0000.0001) %MON dynstat_vvel_min             =  -2.8525363458636E-03
(PID.TID 0000.0001) %MON dynstat_vvel_mean            =  -4.8996984609401E-08
(PID.TID 0000.0001) %MON dynstat_vvel_sd              =   1.5904607599193E-04
(PID.TID 0000.0001) %MON dynstat_vvel_del2            =   4.3823080644055E-07
(PID.TID 0000.0001) %MON dynstat_wvel_max             =   3.8396322714343E-04
(PID.TID 0000.0001) %MON dynstat_wvel_min             =  -3.7290578179034E-04
(PID.TID 0000.0001) %MON dynstat_wvel_mean            =   1.7527183926464E-10
(PID.TID 0000.0001) %MON dynstat_wvel_sd              =   1.0692106025715E-05
(PID.TID 0000.0001) %MON dynstat_wvel_del2            =   4.4934493931758E-08
(PID.TID 0000.0001) %MON dynstat_theta_max            =   1.2000000000000E+00
(PID.TID 0000.0001) %MON dynstat_theta_min            =  -1.0000000000000E+00
(PID.TID 0000.0001) %MON dynstat_theta_mean           =   5.6533767888603E-01
(PID.TID 0000.0001) %MON dynstat_theta_sd             =   8.4902518673842E-01
(PID.TID 0000.0001) %MON dynstat_theta_del2           =   1.2241814832969E-06
(PID.TID 0000.0001) %MON dynstat_salt_max             =   3.4700000000000E+01
(PID.TID 0000.0001) %MON dynstat_salt_min             =   3.4000000000000E+01
(PID.TID 0000.0001) %MON dynstat_salt_mean            =   3.4498048804759E+01
(PID.TID 0000.0001) %MON dynstat_salt_sd              =   2.7014450083741E-01
(PID.TID 0000.0001) %MON dynstat_salt_del2            =   4.7849581620583E-07
(PID.TID 0000.0001) %MON advcfl_uvel_max              =   1.0049463207818E-03
(PID.TID 0000.0001) %MON advcfl_vvel_max              =   8.6176221797902E-04
(PID.TID 0000.0001) %MON advcfl_wvel_max              =   1.9198161357172E-03
(PID.TID 0000.0001) %MON advcfl_W_hf_max              =   1.9198161357172E-03
(PID.TID 0000.0001) %MON pe_b_mean                    =  -6.8258625599015E-01
(PID.TID 0000.0001) %MON ke_max                       =   3.1032888022157E-05
(PID.TID 0000.0001) %MON ke_mean                      =   4.8122844383664E-08
(PID.TID 0000.0001) %MON ke_vol                       =   4.6182943402559E+12
(PID.TID 0000.0001) // =======================================================
(PID.TID 0000.0001) // End MONITOR dynamic field statistics
(PID.TID 0000.0001) // =======================================================
(PID.TID 0000.0001) // =======================================================
(PID.TID 0000.0001) // Begin OBCS MONITOR field statistics
(PID.TID 0000.0001) // =======================================================
(PID.TID 0000.0001) %MON obc_N_vVel_max               =  -6.3209165234462E-08
(PID.TID 0000.0001) %MON obc_N_vVel_min               =  -6.3209165234465E-08
(PID.TID 0000.0001) %MON obc_N_vVel_mean              =  -6.3209165234465E-08
(PID.TID 0000.0001) %MON obc_N_vVel_sd                =  -1.9405978268437E-28
(PID.TID 0000.0001) %MON obc_N_vVel_Int               =  -4.1718049054747E+00
(PID.TID 0000.0001) // =======================================================
(PID.TID 0000.0001) // End OBCS MONITOR field statistics
(PID.TID 0000.0001) // =======================================================
 cg2d: Sum(rhs),rhsMax =   3.01104437191601E+00  4.53048043596246E+02
(PID.TID 0000.0001)      cg2d_init_res =   1.56541128380979E-06
(PID.TID 0000.0001)      cg2d_iters(min,last) =      -1      72
(PID.TID 0000.0001)      cg2d_last_res =   7.75156059963987E-12
(PID.TID 0000.0001) // =======================================================
(PID.TID 0000.0001) // Begin MONITOR dynamic field statistics
(PID.TID 0000.0001) // =======================================================
(PID.TID 0000.0001) %MON time_tsnumber                =                   725
(PID.TID 0000.0001) %MON time_secondsf                =   7.2500000000000E+04
(PID.TID 0000.0001) %MON dynstat_eta_max              =   5.7974801846292E+00
(PID.TID 0000.0001) %MON dynstat_eta_min              =  -1.4174922571795E+01
(PID.TID 0000.0001) %MON dynstat_eta_mean             =  -2.5261995590334E+00
(PID.TID 0000.0001) %MON dynstat_eta_sd               =   4.9417022016093E+00
(PID.TID 0000.0001) %MON dynstat_eta_del2             =   1.9058200893932E-01
(PID.TID 0000.0001) %MON dynstat_uvel_max             =   3.0759387214463E-03
(PID.TID 0000.0001) %MON dynstat_uvel_min             =  -1.0078209061582E-02
(PID.TID 0000.0001) %MON dynstat_uvel_mean            =  -1.1523527668391E-09
(PID.TID 0000.0001) %MON dynstat_uvel_sd              =   2.6955624308956E-04
(PID.TID 0000.0001) %MON dynstat_uvel_del2            =   4.6420651993994E-07
(PID.TID 0000.0001) %MON dynstat_vvel_max             =   8.6356867993649E-03
(PID.TID 0000.0001) %MON dynstat_vvel_min             =  -2.8605200590155E-03
(PID.TID 0000.0001) %MON dynstat_vvel_mean            =  -4.8770824979274E-08
(PID.TID 0000.0001) %MON dynstat_vvel_sd              =   1.5940029922760E-04
(PID.TID 0000.0001) %MON dynstat_vvel_del2            =   4.3923988986424E-07
(PID.TID 0000.0001) %MON dynstat_wvel_max             =   3.8521681385315E-04
(PID.TID 0000.0001) %MON dynstat_wvel_min             =  -3.7417750581997E-04
(PID.TID 0000.0001) %MON dynstat_wvel_mean            =   1.7519650167869E-10
(PID.TID 0000.0001) %MON dynstat_wvel_sd              =   1.0766777010225E-05
(PID.TID 0000.0001) %MON dynstat_wvel_del2            =   4.5497458477999E-08
(PID.TID 0000.0001) %MON dynstat_theta_max            =   1.2000000000000E+00
(PID.TID 0000.0001) %MON dynstat_theta_min            =  -1.0000000000000E+00
(PID.TID 0000.0001) %MON dynstat_theta_mean           =   5.6533736227632E-01
(PID.TID 0000.0001) %MON dynstat_theta_sd             =   8.4902507430603E-01
(PID.TID 0000.0001) %MON dynstat_theta_del2           =   1.2262571891388E-06
(PID.TID 0000.0001) %MON dynstat_salt_max             =   3.4700000000000E+01
(PID.TID 0000.0001) %MON dynstat_salt_min             =   3.4000000000000E+01
(PID.TID 0000.0001) %MON dynstat_salt_mean            =   3.4498048678890E+01
(PID.TID 0000.0001) %MON dynstat_salt_sd              =   2.7014446077541E-01
(PID.TID 0000.0001) %MON dynstat_salt_del2            =   4.7938159444218E-07
(PID.TID 0000.0001) %MON advcfl_uvel_max              =   1.0078209061582E-03
(PID.TID 0000.0001) %MON advcfl_vvel_max              =   8.6356867993649E-04
(PID.TID 0000.0001) %MON advcfl_wvel_max              =   1.9260840692657E-03
(PID.TID 0000.0001) %MON advcfl_W_hf_max              =   1.9260840692657E-03
(PID.TID 0000.0001) %MON pe_b_mean                    =  -6.8258543948057E-01
(PID.TID 0000.0001) %MON ke_max                       =   3.1209794225754E-05
(PID.TID 0000.0001) %MON ke_mean                      =   4.8351164251188E-08
(PID.TID 0000.0001) %MON ke_vol                       =   4.6182943574262E+12
(PID.TID 0000.0001) // =======================================================
(PID.TID 0000.0001) // End MONITOR dynamic field statistics
(PID.TID 0000.0001) // =======================================================
(PID.TID 0000.0001) // =======================================================
(PID.TID 0000.0001) // Begin OBCS MONITOR field statistics
(PID.TID 0000.0001) // =======================================================
(PID.TID 0000.0001) %MON obc_N_vVel_max               =  -6.3001257082541E-08
(PID.TID 0000.0001) %MON obc_N_vVel_min               =  -6.3001257082542E-08
(PID.TID 0000.0001) %MON obc_N_vVel_mean              =  -6.3001257082541E-08
(PID.TID 0000.0001) %MON obc_N_vVel_sd                =   1.0395861869767E-14
(PID.TID 0000.0001) %MON obc_N_vVel_Int               =  -4.1580829674477E+00
(PID.TID 0000.0001) // =======================================================
(PID.TID 0000.0001) // End OBCS MONITOR field statistics
(PID.TID 0000.0001) // =======================================================
 cg2d: Sum(rhs),rhsMax =   3.01104097604331E+00  4.53048034755238E+02
(PID.TID 0000.0001)      cg2d_init_res =   1.57321123978120E-06
(PID.TID 0000.0001)      cg2d_iters(min,last) =      -1      72
(PID.TID 0000.0001)      cg2d_last_res =   7.76752548124186E-12
(PID.TID 0000.0001) // =======================================================
(PID.TID 0000.0001) // Begin MONITOR dynamic field statistics
(PID.TID 0000.0001) // =======================================================
(PID.TID 0000.0001) %MON time_tsnumber                =                   726
(PID.TID 0000.0001) %MON time_secondsf                =   7.2600000000000E+04
(PID.TID 0000.0001) %MON dynstat_eta_max              =   5.7974828814637E+00
(PID.TID 0000.0001) %MON dynstat_eta_min              =  -1.4174918029247E+01
(PID.TID 0000.0001) %MON dynstat_eta_mean             =  -2.5261966606739E+00
(PID.TID 0000.0001) %MON dynstat_eta_sd               =   4.9417013082392E+00
(PID.TID 0000.0001) %MON dynstat_eta_del2             =   1.9058201459791E-01
(PID.TID 0000.0001) %MON dynstat_uvel_max             =   3.0809517231489E-03
(PID.TID 0000.0001) %MON dynstat_uvel_min             =  -1.0107020798416E-02
(PID.TID 0000.0001) %MON dynstat_uvel_mean            =  -1.1497135636475E-09
(PID.TID 0000.0001) %MON dynstat_uvel_sd              =   2.7020983879344E-04
(PID.TID 0000.0001) %MON dynstat_uvel_del2            =   4.6520734423658E-07
(PID.TID 0000.0001) %MON dynstat_vvel_max             =   8.6537782206704E-03
(PID.TID 0000.0001) %MON dynstat_vvel_min             =  -2.8685162011834E-03
(PID.TID 0000.0001) %MON dynstat_vvel_mean            =  -4.8592790621595E-08
(PID.TID 0000.0001) %MON dynstat_vvel_sd              =   1.5974930090950E-04
(PID.TID 0000.0001) %MON dynstat_vvel_del2            =   4.4018260200910E-07
(PID.TID 0000.0001) %MON dynstat_wvel_max             =   3.8647319172324E-04
(PID.TID 0000.0001) %MON dynstat_wvel_min             =  -3.7545389492826E-04
(PID.TID 0000.0001) %MON dynstat_wvel_mean            =   1.7508349407758E-10
(PID.TID 0000.0001) %MON dynstat_wvel_sd              =   1.0811981540761E-05
(PID.TID 0000.0001) %MON dynstat_wvel_del2            =   4.5851834121843E-08
(PID.TID 0000.0001) %MON dynstat_theta_max            =   1.2000000000000E+00
(PID.TID 0000.0001) %MON dynstat_theta_min            =  -1.0000000000000E+00
(PID.TID 0000.0001) %MON dynstat_theta_mean           =   5.6533704530191E-01
(PID.TID 0000.0001) %MON dynstat_theta_sd             =   8.4902496154628E-01
(PID.TID 0000.0001) %MON dynstat_theta_del2           =   1.2284160866809E-06
(PID.TID 0000.0001) %MON dynstat_salt_max             =   3.4700000000000E+01
(PID.TID 0000.0001) %MON dynstat_salt_min             =   3.4000000000000E+01
(PID.TID 0000.0001) %MON dynstat_salt_mean            =   3.4498048552867E+01
(PID.TID 0000.0001) %MON dynstat_salt_sd              =   2.7014442058838E-01
(PID.TID 0000.0001) %MON dynstat_salt_del2            =   4.8028979616076E-07
(PID.TID 0000.0001) %MON advcfl_uvel_max              =   1.0107020798416E-03
(PID.TID 0000.0001) %MON advcfl_vvel_max              =   8.6537782206704E-04
(PID.TID 0000.0001) %MON advcfl_wvel_max              =   1.9323659586162E-03
(PID.TID 0000.0001) %MON advcfl_W_hf_max              =   1.9323659586162E-03
(PID.TID 0000.0001) %MON pe_b_mean                    =  -6.8258462171123E-01
(PID.TID 0000.0001) %MON ke_max                       =   3.1387617331505E-05
(PID.TID 0000.0001) %MON ke_mean                      =   4.8579932851326E-08
(PID.TID 0000.0001) %MON ke_vol                       =   4.6182943746193E+12
(PID.TID 0000.0001) // =======================================================
(PID.TID 0000.0001) // End MONITOR dynamic field statistics
(PID.TID 0000.0001) // =======================================================
(PID.TID 0000.0001) // =======================================================
(PID.TID 0000.0001) // Begin OBCS MONITOR field statistics
(PID.TID 0000.0001) // =======================================================
(PID.TID 0000.0001) %MON obc_N_vVel_max               =  -6.2833942178875E-08
(PID.TID 0000.0001) %MON obc_N_vVel_min               =  -6.2833942178876E-08
(PID.TID 0000.0001) %MON obc_N_vVel_mean              =  -6.2833942178875E-08
(PID.TID 0000.0001) %MON obc_N_vVel_sd                =   9.3995968735235E-15
(PID.TID 0000.0001) %MON obc_N_vVel_Int               =  -4.1470401838057E+00
(PID.TID 0000.0001) // =======================================================
(PID.TID 0000.0001) // End OBCS MONITOR field statistics
(PID.TID 0000.0001) // =======================================================
 cg2d: Sum(rhs),rhsMax =   3.01103757538574E+00  4.53048025922927E+02
(PID.TID 0000.0001)      cg2d_init_res =   1.57838614889982E-06
(PID.TID 0000.0001)      cg2d_iters(min,last) =      -1      72
(PID.TID 0000.0001)      cg2d_last_res =   7.78454635746685E-12
(PID.TID 0000.0001) // =======================================================
(PID.TID 0000.0001) // Begin MONITOR dynamic field statistics
(PID.TID 0000.0001) // =======================================================
(PID.TID 0000.0001) %MON time_tsnumber                =                   727
(PID.TID 0000.0001) %MON time_secondsf                =   7.2700000000000E+04
(PID.TID 0000.0001) %MON dynstat_eta_max              =   5.7974855799281E+00
(PID.TID 0000.0001) %MON dynstat_eta_min              =  -1.4174913482751E+01
(PID.TID 0000.0001) %MON dynstat_eta_mean             =  -2.5261937583486E+00
(PID.TID 0000.0001) %MON dynstat_eta_sd               =   4.9417004137485E+00
(PID.TID 0000.0001) %MON dynstat_eta_del2             =   1.9058202027159E-01
(PID.TID 0000.0001) %MON dynstat_uvel_max             =   3.0859688455642E-03
(PID.TID 0000.0001) %MON dynstat_uvel_min             =  -1.0135898497607E-02
(PID.TID 0000.0001) %MON dynstat_uvel_mean            =  -1.1468579594477E-09
(PID.TID 0000.0001) %MON dynstat_uvel_sd              =   2.7086623598228E-04
(PID.TID 0000.0001) %MON dynstat_uvel_del2            =   4.6621121086805E-07
(PID.TID 0000.0001) %MON dynstat_vvel_max             =   8.6718964470573E-03
(PID.TID 0000.0001) %MON dynstat_vvel_min             =  -2.8765248080100E-03
(PID.TID 0000.0001) %MON dynstat_vvel_mean            =  -4.8466819088723E-08
(PID.TID 0000.0001) %MON dynstat_vvel_sd              =   1.6009237293318E-04
(PID.TID 0000.0001) %MON dynstat_vvel_del2            =   4.4105263650703E-07
(PID.TID 0000.0001) %MON dynstat_wvel_max             =   3.8773236728526E-04
(PID.TID 0000.0001) %MON dynstat_wvel_min             =  -3.7673495750802E-04
(PID.TID 0000.0001) %MON dynstat_wvel_mean            =   1.7494307381963E-10
(PID.TID 0000.0001) %MON dynstat_wvel_sd              =   1.0825015960211E-05
(PID.TID 0000.0001) %MON dynstat_wvel_del2            =   4.5975228958978E-08
(PID.TID 0000.0001) %MON dynstat_theta_max            =   1.2000000000000E+00
(PID.TID 0000.0001) %MON dynstat_theta_min            =  -1.0000000000000E+00
(PID.TID 0000.0001) %MON dynstat_theta_mean           =   5.6533672796667E-01
(PID.TID 0000.0001) %MON dynstat_theta_sd             =   8.4902484846069E-01
(PID.TID 0000.0001) %MON dynstat_theta_del2           =   1.2306665250399E-06
(PID.TID 0000.0001) %MON dynstat_salt_max             =   3.4700000000000E+01
(PID.TID 0000.0001) %MON dynstat_salt_min             =   3.4000000000000E+01
(PID.TID 0000.0001) %MON dynstat_salt_mean            =   3.4498048426693E+01
(PID.TID 0000.0001) %MON dynstat_salt_sd              =   2.7014438027648E-01
(PID.TID 0000.0001) %MON dynstat_salt_del2            =   4.8122241726332E-07
(PID.TID 0000.0001) %MON advcfl_uvel_max              =   1.0135898497607E-03
(PID.TID 0000.0001) %MON advcfl_vvel_max              =   8.6718964470573E-04
(PID.TID 0000.0001) %MON advcfl_wvel_max              =   1.9386618364263E-03
(PID.TID 0000.0001) %MON advcfl_W_hf_max              =   1.9386618364263E-03
(PID.TID 0000.0001) %MON pe_b_mean                    =  -6.8258380266603E-01
(PID.TID 0000.0001) %MON ke_max                       =   3.1566361245817E-05
(PID.TID 0000.0001) %MON ke_mean                      =   4.8809037689964E-08
(PID.TID 0000.0001) %MON ke_vol                       =   4.6182943918356E+12
(PID.TID 0000.0001) // =======================================================
(PID.TID 0000.0001) // End MONITOR dynamic field statistics
(PID.TID 0000.0001) // =======================================================
(PID.TID 0000.0001) // =======================================================
(PID.TID 0000.0001) // Begin OBCS MONITOR field statistics
(PID.TID 0000.0001) // =======================================================
(PID.TID 0000.0001) %MON obc_N_vVel_max               =  -6.2711703474016E-08
(PID.TID 0000.0001) %MON obc_N_vVel_min               =  -6.2711703474017E-08
(PID.TID 0000.0001) %MON obc_N_vVel_mean              =  -6.2711703474016E-08
(PID.TID 0000.0001) %MON obc_N_vVel_sd                =   4.9451681530410E-15
(PID.TID 0000.0001) %MON obc_N_vVel_Int               =  -4.1389724292851E+00
(PID.TID 0000.0001) // =======================================================
(PID.TID 0000.0001) // End OBCS MONITOR field statistics
(PID.TID 0000.0001) // =======================================================
 cg2d: Sum(rhs),rhsMax =   3.01103416985950E+00  4.53048017098614E+02
(PID.TID 0000.0001)      cg2d_init_res =   1.58073089757777E-06
(PID.TID 0000.0001)      cg2d_iters(min,last) =      -1      72
(PID.TID 0000.0001)      cg2d_last_res =   7.80291218033576E-12
(PID.TID 0000.0001) // =======================================================
(PID.TID 0000.0001) // Begin MONITOR dynamic field statistics
(PID.TID 0000.0001) // =======================================================
(PID.TID 0000.0001) %MON time_tsnumber                =                   728
(PID.TID 0000.0001) %MON time_secondsf                =   7.2800000000000E+04
(PID.TID 0000.0001) %MON dynstat_eta_max              =   5.7974882802031E+00
(PID.TID 0000.0001) %MON dynstat_eta_min              =  -1.4174908931995E+01
(PID.TID 0000.0001) %MON dynstat_eta_mean             =  -2.5261908519834E+00
(PID.TID 0000.0001) %MON dynstat_eta_sd               =   4.9416995181146E+00
(PID.TID 0000.0001) %MON dynstat_eta_del2             =   1.9058202596068E-01
(PID.TID 0000.0001) %MON dynstat_uvel_max             =   3.0909900400022E-03
(PID.TID 0000.0001) %MON dynstat_uvel_min             =  -1.0164842285469E-02
(PID.TID 0000.0001) %MON dynstat_uvel_mean            =  -1.1438666175721E-09
(PID.TID 0000.0001) %MON dynstat_uvel_sd              =   2.7152543761866E-04
(PID.TID 0000.0001) %MON dynstat_uvel_del2            =   4.6721809090274E-07
(PID.TID 0000.0001) %MON dynstat_vvel_max             =   8.6900414816513E-03
(PID.TID 0000.0001) %MON dynstat_vvel_min             =  -2.8845459979845E-03
(PID.TID 0000.0001) %MON dynstat_vvel_mean            =  -4.8395102060126E-08
(PID.TID 0000.0001) %MON dynstat_vvel_sd              =   1.6042944476455E-04
(PID.TID 0000.0001) %MON dynstat_vvel_del2            =   4.4185006018965E-07
(PID.TID 0000.0001) %MON dynstat_wvel_max             =   3.8899434707800E-04
(PID.TID 0000.0001) %MON dynstat_wvel_min             =  -3.7802070110436E-04
(PID.TID 0000.0001) %MON dynstat_wvel_mean            =   1.7478691403789E-10
(PID.TID 0000.0001) %MON dynstat_wvel_sd              =   1.0805696398789E-05
(PID.TID 0000.0001) %MON dynstat_wvel_del2            =   4.5861954194990E-08
(PID.TID 0000.0001) %MON dynstat_theta_max            =   1.2000000000000E+00
(PID.TID 0000.0001) %MON dynstat_theta_min            =  -1.0000000000000E+00
(PID.TID 0000.0001) %MON dynstat_theta_mean           =   5.6533641027206E-01
(PID.TID 0000.0001) %MON dynstat_theta_sd             =   8.4902473505165E-01
(PID.TID 0000.0001) %MON dynstat_theta_del2           =   1.2330088501589E-06
(PID.TID 0000.0001) %MON dynstat_salt_max             =   3.4700000000000E+01
(PID.TID 0000.0001) %MON dynstat_salt_min             =   3.4000000000000E+01
(PID.TID 0000.0001) %MON dynstat_salt_mean            =   3.4498048300366E+01
(PID.TID 0000.0001) %MON dynstat_salt_sd              =   2.7014433984069E-01
(PID.TID 0000.0001) %MON dynstat_salt_del2            =   4.8217965658846E-07
(PID.TID 0000.0001) %MON advcfl_uvel_max              =   1.0164842285469E-03
(PID.TID 0000.0001) %MON advcfl_vvel_max              =   8.6900414816513E-04
(PID.TID 0000.0001) %MON advcfl_wvel_max              =   1.9449717353900E-03
(PID.TID 0000.0001) %MON advcfl_W_hf_max              =   1.9449717353900E-03
(PID.TID 0000.0001) %MON pe_b_mean                    =  -6.8258298232768E-01
(PID.TID 0000.0001) %MON ke_max                       =   3.1746030048108E-05
(PID.TID 0000.0001) %MON ke_mean                      =   4.9038467551402E-08
(PID.TID 0000.0001) %MON ke_vol                       =   4.6182944090754E+12
(PID.TID 0000.0001) // =======================================================
(PID.TID 0000.0001) // End MONITOR dynamic field statistics
(PID.TID 0000.0001) // =======================================================
(PID.TID 0000.0001) // =======================================================
(PID.TID 0000.0001) // Begin OBCS MONITOR field statistics
(PID.TID 0000.0001) // =======================================================
(PID.TID 0000.0001) %MON obc_N_vVel_max               =  -6.2637522514085E-08
(PID.TID 0000.0001) %MON obc_N_vVel_min               =  -6.2637522514086E-08
(PID.TID 0000.0001) %MON obc_N_vVel_mean              =  -6.2637522514086E-08
(PID.TID 0000.0001) %MON obc_N_vVel_sd                =  -1.7039395552774E-28
(PID.TID 0000.0001) %MON obc_N_vVel_Int               =  -4.1340764859297E+00
(PID.TID 0000.0001) // =======================================================
(PID.TID 0000.0001) // End OBCS MONITOR field statistics
(PID.TID 0000.0001) // =======================================================
 cg2d: Sum(rhs),rhsMax =   3.01103075937707E+00  4.53048008281743E+02
(PID.TID 0000.0001)      cg2d_init_res =   1.58029076820998E-06
(PID.TID 0000.0001)      cg2d_iters(min,last) =      -1      72
(PID.TID 0000.0001)      cg2d_last_res =   7.82282746867660E-12
(PID.TID 0000.0001) // =======================================================
(PID.TID 0000.0001) // Begin MONITOR dynamic field statistics
(PID.TID 0000.0001) // =======================================================
(PID.TID 0000.0001) %MON time_tsnumber                =                   729
(PID.TID 0000.0001) %MON time_secondsf                =   7.2900000000000E+04
(PID.TID 0000.0001) %MON dynstat_eta_max              =   5.7974909824712E+00
(PID.TID 0000.0001) %MON dynstat_eta_min              =  -1.4174904376677E+01
(PID.TID 0000.0001) %MON dynstat_eta_mean             =  -2.5261879415016E+00
(PID.TID 0000.0001) %MON dynstat_eta_sd               =   4.9416986213125E+00
(PID.TID 0000.0001) %MON dynstat_eta_del2             =   1.9058203166522E-01
(PID.TID 0000.0001) %MON dynstat_uvel_max             =   3.0960152567783E-03
(PID.TID 0000.0001) %MON dynstat_uvel_min             =  -1.0193852240168E-02
(PID.TID 0000.0001) %MON dynstat_uvel_mean            =  -1.1408116775443E-09
(PID.TID 0000.0001) %MON dynstat_uvel_sd              =   2.7218744511709E-04
(PID.TID 0000.0001) %MON dynstat_uvel_del2            =   4.6822794575778E-07
(PID.TID 0000.0001) %MON dynstat_vvel_max             =   8.7082133274723E-03
(PID.TID 0000.0001) %MON dynstat_vvel_min             =  -2.8925798100001E-03
(PID.TID 0000.0001) %MON dynstat_vvel_mean            =  -4.8378052833965E-08
(PID.TID 0000.0001) %MON dynstat_vvel_sd              =   1.6076107416094E-04
(PID.TID 0000.0001) %MON dynstat_vvel_del2            =   4.4258120411662E-07
(PID.TID 0000.0001) %MON dynstat_wvel_max             =   3.9025913768645E-04
(PID.TID 0000.0001) %MON dynstat_wvel_min             =  -3.7931113557984E-04
(PID.TID 0000.0001) %MON dynstat_wvel_mean            =   1.7462614951340E-10
(PID.TID 0000.0001) %MON dynstat_wvel_sd              =   1.0756319673057E-05
(PID.TID 0000.0001) %MON dynstat_wvel_del2            =   4.5522961666716E-08
(PID.TID 0000.0001) %MON dynstat_theta_max            =   1.2000000000000E+00
(PID.TID 0000.0001) %MON dynstat_theta_min            =  -1.0000000000000E+00
(PID.TID 0000.0001) %MON dynstat_theta_mean           =   5.6533609221750E-01
(PID.TID 0000.0001) %MON dynstat_theta_sd             =   8.4902462132673E-01
(PID.TID 0000.0001) %MON dynstat_theta_del2           =   1.2354363403079E-06
(PID.TID 0000.0001) %MON dynstat_salt_max             =   3.4700000000000E+01
(PID.TID 0000.0001) %MON dynstat_salt_min             =   3.4000000000000E+01
(PID.TID 0000.0001) %MON dynstat_salt_mean            =   3.4498048173888E+01
(PID.TID 0000.0001) %MON dynstat_salt_sd              =   2.7014429928301E-01
(PID.TID 0000.0001) %MON dynstat_salt_del2            =   4.8315978436079E-07
(PID.TID 0000.0001) %MON advcfl_uvel_max              =   1.0193852240168E-03
(PID.TID 0000.0001) %MON advcfl_vvel_max              =   8.7082133274723E-04
(PID.TID 0000.0001) %MON advcfl_wvel_max              =   1.9512956884322E-03
(PID.TID 0000.0001) %MON advcfl_W_hf_max              =   1.9512956884322E-03
(PID.TID 0000.0001) %MON pe_b_mean                    =  -6.8258216067857E-01
(PID.TID 0000.0001) %MON ke_max                       =   3.1926627654609E-05
(PID.TID 0000.0001) %MON ke_mean                      =   4.9268311850483E-08
(PID.TID 0000.0001) %MON ke_vol                       =   4.6182944263392E+12
(PID.TID 0000.0001) // =======================================================
(PID.TID 0000.0001) // End MONITOR dynamic field statistics
(PID.TID 0000.0001) // =======================================================
(PID.TID 0000.0001) // =======================================================
(PID.TID 0000.0001) // Begin OBCS MONITOR field statistics
(PID.TID 0000.0001) // =======================================================
(PID.TID 0000.0001) %MON obc_N_vVel_max               =  -6.2612778085090E-08
(PID.TID 0000.0001) %MON obc_N_vVel_min               =  -6.2612778085091E-08
(PID.TID 0000.0001) %MON obc_N_vVel_mean              =  -6.2612778085091E-08
(PID.TID 0000.0001) %MON obc_N_vVel_sd                =  -1.5698332013898E-28
(PID.TID 0000.0001) %MON obc_N_vVel_Int               =  -4.1324433536160E+00
(PID.TID 0000.0001) // =======================================================
(PID.TID 0000.0001) // End OBCS MONITOR field statistics
(PID.TID 0000.0001) // =======================================================
 cg2d: Sum(rhs),rhsMax =   3.01102734385170E+00  4.53047999471930E+02
(PID.TID 0000.0001)      cg2d_init_res =   1.57732889790531E-06
(PID.TID 0000.0001)      cg2d_iters(min,last) =      -1      72
(PID.TID 0000.0001)      cg2d_last_res =   7.84445097636097E-12
(PID.TID 0000.0001) // =======================================================
(PID.TID 0000.0001) // Begin MONITOR dynamic field statistics
(PID.TID 0000.0001) // =======================================================
(PID.TID 0000.0001) %MON time_tsnumber                =                   730
(PID.TID 0000.0001) %MON time_secondsf                =   7.3000000000000E+04
(PID.TID 0000.0001) %MON dynstat_eta_max              =   5.7974936869083E+00
(PID.TID 0000.0001) %MON dynstat_eta_min              =  -1.4174899816482E+01
(PID.TID 0000.0001) %MON dynstat_eta_mean             =  -2.5261850268283E+00
(PID.TID 0000.0001) %MON dynstat_eta_sd               =   4.9416977233223E+00
(PID.TID 0000.0001) %MON dynstat_eta_del2             =   1.9058203738537E-01
(PID.TID 0000.0001) %MON dynstat_uvel_max             =   3.1010444469040E-03
(PID.TID 0000.0001) %MON dynstat_uvel_min             =  -1.0222928432695E-02
(PID.TID 0000.0001) %MON dynstat_uvel_mean            =  -1.1377706596154E-09
(PID.TID 0000.0001) %MON dynstat_uvel_sd              =   2.7285225908747E-04
(PID.TID 0000.0001) %MON dynstat_uvel_del2            =   4.6924072960446E-07
(PID.TID 0000.0001) %MON dynstat_vvel_max             =   8.7264119875605E-03
(PID.TID 0000.0001) %MON dynstat_vvel_min             =  -2.9006262589109E-03
(PID.TID 0000.0001) %MON dynstat_vvel_mean            =  -4.8414269786502E-08
(PID.TID 0000.0001) %MON dynstat_vvel_sd              =   1.6108838651966E-04
(PID.TID 0000.0001) %MON dynstat_vvel_del2            =   4.4325804483671E-07
(PID.TID 0000.0001) %MON dynstat_wvel_max             =   3.9152674569070E-04
(PID.TID 0000.0001) %MON dynstat_wvel_min             =  -3.8060626949497E-04
(PID.TID 0000.0001) %MON dynstat_wvel_mean            =   1.7447282722060E-10
(PID.TID 0000.0001) %MON dynstat_wvel_sd              =   1.0681497288970E-05
(PID.TID 0000.0001) %MON dynstat_wvel_del2            =   4.4985302670913E-08
(PID.TID 0000.0001) %MON dynstat_theta_max            =   1.2000000000000E+00
(PID.TID 0000.0001) %MON dynstat_theta_min            =  -1.0000000000000E+00
(PID.TID 0000.0001) %MON dynstat_theta_mean           =   5.6533577380054E-01
(PID.TID 0000.0001) %MON dynstat_theta_sd             =   8.4902450729245E-01
(PID.TID 0000.0001) %MON dynstat_theta_del2           =   1.2379355556747E-06
(PID.TID 0000.0001) %MON dynstat_salt_max             =   3.4700000000000E+01
(PID.TID 0000.0001) %MON dynstat_salt_min             =   3.4000000000000E+01
(PID.TID 0000.0001) %MON dynstat_salt_mean            =   3.4498048047256E+01
(PID.TID 0000.0001) %MON dynstat_salt_sd              =   2.7014425860589E-01
(PID.TID 0000.0001) %MON dynstat_salt_del2            =   4.8415934190969E-07
(PID.TID 0000.0001) %MON advcfl_uvel_max              =   1.0222928432695E-03
(PID.TID 0000.0001) %MON advcfl_vvel_max              =   8.7264119875605E-04
(PID.TID 0000.0001) %MON advcfl_wvel_max              =   1.9576337284535E-03
(PID.TID 0000.0001) %MON advcfl_W_hf_max              =   1.9576337284535E-03
(PID.TID 0000.0001) %MON pe_b_mean                    =  -6.8258133770202E-01
(PID.TID 0000.0001) %MON ke_max                       =   3.2108157983344E-05
(PID.TID 0000.0001) %MON ke_mean                      =   4.9498752085431E-08
(PID.TID 0000.0001) %MON ke_vol                       =   4.6182944436275E+12
(PID.TID 0000.0001) // =======================================================
(PID.TID 0000.0001) // End MONITOR dynamic field statistics
(PID.TID 0000.0001) // =======================================================
(PID.TID 0000.0001) // =======================================================
(PID.TID 0000.0001) // Begin OBCS MONITOR field statistics
(PID.TID 0000.0001) // =======================================================
(PID.TID 0000.0001) %MON obc_N_vVel_max               =  -6.2637234417148E-08
(PID.TID 0000.0001) %MON obc_N_vVel_min               =  -6.2637234417149E-08
(PID.TID 0000.0001) %MON obc_N_vVel_mean              =  -6.2637234417149E-08
(PID.TID 0000.0001) %MON obc_N_vVel_sd                =  -3.0686689213097E-28
(PID.TID 0000.0001) %MON obc_N_vVel_Int               =  -4.1340574715318E+00
(PID.TID 0000.0001) // =======================================================
(PID.TID 0000.0001) // End OBCS MONITOR field statistics
(PID.TID 0000.0001) // =======================================================
 cg2d: Sum(rhs),rhsMax =   3.01102392320021E+00  4.53047990668941E+02
(PID.TID 0000.0001)      cg2d_init_res =   1.57230223668455E-06
(PID.TID 0000.0001)      cg2d_iters(min,last) =      -1      72
(PID.TID 0000.0001)      cg2d_last_res =   7.86753920139562E-12
(PID.TID 0000.0001) // =======================================================
(PID.TID 0000.0001) // Begin MONITOR dynamic field statistics
(PID.TID 0000.0001) // =======================================================
(PID.TID 0000.0001) %MON time_tsnumber                =                   731
(PID.TID 0000.0001) %MON time_secondsf                =   7.3100000000000E+04
(PID.TID 0000.0001) %MON dynstat_eta_max              =   5.7974963936822E+00
(PID.TID 0000.0001) %MON dynstat_eta_min              =  -1.4174895251122E+01
(PID.TID 0000.0001) %MON dynstat_eta_mean             =  -2.5261821078925E+00
(PID.TID 0000.0001) %MON dynstat_eta_sd               =   4.9416968241254E+00
(PID.TID 0000.0001) %MON dynstat_eta_del2             =   1.9058204312128E-01
(PID.TID 0000.0001) %MON dynstat_uvel_max             =   3.1060775611511E-03
(PID.TID 0000.0001) %MON dynstat_uvel_min             =  -1.0252070931552E-02
(PID.TID 0000.0001) %MON dynstat_uvel_mean            =  -1.1348303740111E-09
(PID.TID 0000.0001) %MON dynstat_uvel_sd              =   2.7351987954067E-04
(PID.TID 0000.0001) %MON dynstat_uvel_del2            =   4.7025639205697E-07
(PID.TID 0000.0001) %MON dynstat_vvel_max             =   8.7446374642421E-03
(PID.TID 0000.0001) %MON dynstat_vvel_min             =  -2.9086853517128E-03
(PID.TID 0000.0001) %MON dynstat_vvel_mean            =  -4.8500595341023E-08
(PID.TID 0000.0001) %MON dynstat_vvel_sd              =   1.6141296763675E-04
(PID.TID 0000.0001) %MON dynstat_vvel_del2            =   4.4389712441643E-07
(PID.TID 0000.0001) %MON dynstat_wvel_max             =   3.9279717762324E-04
(PID.TID 0000.0001) %MON dynstat_wvel_min             =  -3.8190611167757E-04
(PID.TID 0000.0001) %MON dynstat_wvel_mean            =   1.7433886588549E-10
(PID.TID 0000.0001) %MON dynstat_wvel_sd              =   1.0587857489818E-05
(PID.TID 0000.0001) %MON dynstat_wvel_del2            =   4.4291025797128E-08
(PID.TID 0000.0001) %MON dynstat_theta_max            =   1.2000000000000E+00
(PID.TID 0000.0001) %MON dynstat_theta_min            =  -1.0000000000000E+00
(PID.TID 0000.0001) %MON dynstat_theta_mean           =   5.6533545501695E-01
(PID.TID 0000.0001) %MON dynstat_theta_sd             =   8.4902439294886E-01
(PID.TID 0000.0001) %MON dynstat_theta_del2           =   1.2404878348743E-06
(PID.TID 0000.0001) %MON dynstat_salt_max             =   3.4700000000000E+01
(PID.TID 0000.0001) %MON dynstat_salt_min             =   3.4000000000000E+01
(PID.TID 0000.0001) %MON dynstat_salt_mean            =   3.4498047920469E+01
(PID.TID 0000.0001) %MON dynstat_salt_sd              =   2.7014421780897E-01
(PID.TID 0000.0001) %MON dynstat_salt_del2            =   4.8517346756832E-07
(PID.TID 0000.0001) %MON advcfl_uvel_max              =   1.0252070931552E-03
(PID.TID 0000.0001) %MON advcfl_vvel_max              =   8.7446374642421E-04
(PID.TID 0000.0001) %MON advcfl_wvel_max              =   1.9639858881162E-03
(PID.TID 0000.0001) %MON advcfl_W_hf_max              =   1.9639858881162E-03
(PID.TID 0000.0001) %MON pe_b_mean                    =  -6.8258051338242E-01
(PID.TID 0000.0001) %MON ke_max                       =   3.2290624956539E-05
(PID.TID 0000.0001) %MON ke_mean                      =   4.9730045470417E-08
(PID.TID 0000.0001) %MON ke_vol                       =   4.6182944609406E+12
(PID.TID 0000.0001) // =======================================================
(PID.TID 0000.0001) // End MONITOR dynamic field statistics
(PID.TID 0000.0001) // =======================================================
(PID.TID 0000.0001) // =======================================================
(PID.TID 0000.0001) // Begin OBCS MONITOR field statistics
(PID.TID 0000.0001) // =======================================================
(PID.TID 0000.0001) %MON obc_N_vVel_max               =  -6.2709038436457E-08
(PID.TID 0000.0001) %MON obc_N_vVel_min               =  -6.2709038436459E-08
(PID.TID 0000.0001) %MON obc_N_vVel_mean              =  -6.2709038436459E-08
(PID.TID 0000.0001) %MON obc_N_vVel_sd                =  -2.6032409872293E-28
(PID.TID 0000.0001) %MON obc_N_vVel_Int               =  -4.1387965368063E+00
(PID.TID 0000.0001) // =======================================================
(PID.TID 0000.0001) // End OBCS MONITOR field statistics
(PID.TID 0000.0001) // =======================================================
 cg2d: Sum(rhs),rhsMax =   3.01102049734338E+00  4.53047981872689E+02
(PID.TID 0000.0001)      cg2d_init_res =   1.56583849827753E-06
(PID.TID 0000.0001)      cg2d_iters(min,last) =      -1      72
(PID.TID 0000.0001)      cg2d_last_res =   7.89178679593068E-12
(PID.TID 0000.0001) // =======================================================
(PID.TID 0000.0001) // Begin MONITOR dynamic field statistics
(PID.TID 0000.0001) // =======================================================
(PID.TID 0000.0001) %MON time_tsnumber                =                   732
(PID.TID 0000.0001) %MON time_secondsf                =   7.3200000000000E+04
(PID.TID 0000.0001) %MON dynstat_eta_max              =   5.7974991029579E+00
(PID.TID 0000.0001) %MON dynstat_eta_min              =  -1.4174890680308E+01
(PID.TID 0000.0001) %MON dynstat_eta_mean             =  -2.5261791846273E+00
(PID.TID 0000.0001) %MON dynstat_eta_sd               =   4.9416959237043E+00
(PID.TID 0000.0001) %MON dynstat_eta_del2             =   1.9058204887306E-01
(PID.TID 0000.0001) %MON dynstat_uvel_max             =   3.1111145505189E-03
(PID.TID 0000.0001) %MON dynstat_uvel_min             =  -1.0281279812041E-02
(PID.TID 0000.0001) %MON dynstat_uvel_mean            =  -1.1320728025063E-09
(PID.TID 0000.0001) %MON dynstat_uvel_sd              =   2.7419030607907E-04
(PID.TID 0000.0001) %MON dynstat_uvel_del2            =   4.7127488105371E-07
(PID.TID 0000.0001) %MON dynstat_vvel_max             =   8.7628897595329E-03
(PID.TID 0000.0001) %MON dynstat_vvel_min             =  -2.9167571221942E-03
(PID.TID 0000.0001) %MON dynstat_vvel_mean            =  -4.8632241624216E-08
(PID.TID 0000.0001) %MON dynstat_vvel_sd              =   1.6173671994391E-04
(PID.TID 0000.0001) %MON dynstat_vvel_del2            =   4.4451810133991E-07
(PID.TID 0000.0001) %MON dynstat_wvel_max             =   3.9407044002102E-04
(PID.TID 0000.0001) %MON dynstat_wvel_min             =  -3.8321067080454E-04
(PID.TID 0000.0001) %MON dynstat_wvel_mean            =   1.7423553599303E-10
(PID.TID 0000.0001) %MON dynstat_wvel_sd              =   1.0483606230493E-05
(PID.TID 0000.0001) %MON dynstat_wvel_del2            =   4.3495317341969E-08
(PID.TID 0000.0001) %MON dynstat_theta_max            =   1.2000000000000E+00
(PID.TID 0000.0001) %MON dynstat_theta_min            =  -1.0000000000000E+00
(PID.TID 0000.0001) %MON dynstat_theta_mean           =   5.6533513586064E-01
(PID.TID 0000.0001) %MON dynstat_theta_sd             =   8.4902427829798E-01
(PID.TID 0000.0001) %MON dynstat_theta_del2           =   1.2430713022515E-06
(PID.TID 0000.0001) %MON dynstat_salt_max             =   3.4700000000000E+01
(PID.TID 0000.0001) %MON dynstat_salt_min             =   3.4000000000000E+01
(PID.TID 0000.0001) %MON dynstat_salt_mean            =   3.4498047793525E+01
(PID.TID 0000.0001) %MON dynstat_salt_sd              =   2.7014417689288E-01
(PID.TID 0000.0001) %MON dynstat_salt_del2            =   4.8619650231257E-07
(PID.TID 0000.0001) %MON advcfl_uvel_max              =   1.0281279812041E-03
(PID.TID 0000.0001) %MON advcfl_vvel_max              =   8.7628897595329E-04
(PID.TID 0000.0001) %MON advcfl_wvel_max              =   1.9703522001051E-03
(PID.TID 0000.0001) %MON advcfl_W_hf_max              =   1.9703522001051E-03
(PID.TID 0000.0001) %MON pe_b_mean                    =  -6.8257968770530E-01
(PID.TID 0000.0001) %MON ke_max                       =   3.2474032525681E-05
(PID.TID 0000.0001) %MON ke_mean                      =   4.9962502435086E-08
(PID.TID 0000.0001) %MON ke_vol                       =   4.6182944782791E+12
(PID.TID 0000.0001) // =======================================================
(PID.TID 0000.0001) // End MONITOR dynamic field statistics
(PID.TID 0000.0001) // =======================================================
(PID.TID 0000.0001) // =======================================================
(PID.TID 0000.0001) // Begin OBCS MONITOR field statistics
(PID.TID 0000.0001) // =======================================================
(PID.TID 0000.0001) %MON obc_N_vVel_max               =  -6.2824776161195E-08
(PID.TID 0000.0001) %MON obc_N_vVel_min               =  -6.2824776161196E-08
(PID.TID 0000.0001) %MON obc_N_vVel_mean              =  -6.2824776161196E-08
(PID.TID 0000.0001) %MON obc_N_vVel_sd                =  -2.5006890695506E-28
(PID.TID 0000.0001) %MON obc_N_vVel_Int               =  -4.1464352266389E+00
(PID.TID 0000.0001) // =======================================================
(PID.TID 0000.0001) // End OBCS MONITOR field statistics
(PID.TID 0000.0001) // =======================================================
 cg2d: Sum(rhs),rhsMax =   3.01101706620764E+00  4.53047973083223E+02
(PID.TID 0000.0001)      cg2d_init_res =   1.55868161316686E-06
(PID.TID 0000.0001)      cg2d_iters(min,last) =      -1      72
(PID.TID 0000.0001)      cg2d_last_res =   7.91681267683308E-12
(PID.TID 0000.0001) // =======================================================
(PID.TID 0000.0001) // Begin MONITOR dynamic field statistics
(PID.TID 0000.0001) // =======================================================
(PID.TID 0000.0001) %MON time_tsnumber                =                   733
(PID.TID 0000.0001) %MON time_secondsf                =   7.3300000000000E+04
(PID.TID 0000.0001) %MON dynstat_eta_max              =   5.7975018148743E+00
(PID.TID 0000.0001) %MON dynstat_eta_min              =  -1.4174886103772E+01
(PID.TID 0000.0001) %MON dynstat_eta_mean             =  -2.5261762569710E+00
(PID.TID 0000.0001) %MON dynstat_eta_sd               =   4.9416950220457E+00
(PID.TID 0000.0001) %MON dynstat_eta_del2             =   1.9058205464084E-01
(PID.TID 0000.0001) %MON dynstat_uvel_max             =   3.1161553658290E-03
(PID.TID 0000.0001) %MON dynstat_uvel_min             =  -1.0310555150056E-02
(PID.TID 0000.0001) %MON dynstat_uvel_mean            =  -1.1295646359188E-09
(PID.TID 0000.0001) %MON dynstat_uvel_sd              =   2.7486353824375E-04
(PID.TID 0000.0001) %MON dynstat_uvel_del2            =   4.7229614625835E-07
(PID.TID 0000.0001) %MON dynstat_vvel_max             =   8.7811688749435E-03
(PID.TID 0000.0001) %MON dynstat_vvel_min             =  -2.9248416059504E-03
(PID.TID 0000.0001) %MON dynstat_vvel_mean            =  -4.8802963681556E-08
(PID.TID 0000.0001) %MON dynstat_vvel_sd              =   1.6206169493903E-04
(PID.TID 0000.0001) %MON dynstat_vvel_del2            =   4.4514205514372E-07
(PID.TID 0000.0001) %MON dynstat_wvel_max             =   3.9534653941385E-04
(PID.TID 0000.0001) %MON dynstat_wvel_min             =  -3.8451995579730E-04
(PID.TID 0000.0001) %MON dynstat_wvel_mean            =   1.7417287694211E-10
(PID.TID 0000.0001) %MON dynstat_wvel_sd              =   1.0377940365767E-05
(PID.TID 0000.0001) %MON dynstat_wvel_del2            =   4.2663590983755E-08
(PID.TID 0000.0001) %MON dynstat_theta_max            =   1.2000000000000E+00
(PID.TID 0000.0001) %MON dynstat_theta_min            =  -1.0000000000000E+00
(PID.TID 0000.0001) %MON dynstat_theta_mean           =   5.6533481632371E-01
(PID.TID 0000.0001) %MON dynstat_theta_sd             =   8.4902416334874E-01
(PID.TID 0000.0001) %MON dynstat_theta_del2           =   1.2456627446958E-06
(PID.TID 0000.0001) %MON dynstat_salt_max             =   3.4700000000000E+01
(PID.TID 0000.0001) %MON dynstat_salt_min             =   3.4000000000000E+01
(PID.TID 0000.0001) %MON dynstat_salt_mean            =   3.4498047666422E+01
(PID.TID 0000.0001) %MON dynstat_salt_sd              =   2.7014413586057E-01
(PID.TID 0000.0001) %MON dynstat_salt_del2            =   4.8722244022582E-07
(PID.TID 0000.0001) %MON advcfl_uvel_max              =   1.0310555150056E-03
(PID.TID 0000.0001) %MON advcfl_vvel_max              =   8.7811688749435E-04
(PID.TID 0000.0001) %MON advcfl_wvel_max              =   1.9767326970693E-03
(PID.TID 0000.0001) %MON advcfl_W_hf_max              =   1.9767326970693E-03
(PID.TID 0000.0001) %MON pe_b_mean                    =  -6.8257886065762E-01
(PID.TID 0000.0001) %MON ke_max                       =   3.2658384653136E-05
(PID.TID 0000.0001) %MON ke_mean                      =   5.0196460044348E-08
(PID.TID 0000.0001) %MON ke_vol                       =   4.6182944956433E+12
(PID.TID 0000.0001) // =======================================================
(PID.TID 0000.0001) // End MONITOR dynamic field statistics
(PID.TID 0000.0001) // =======================================================
(PID.TID 0000.0001) // =======================================================
(PID.TID 0000.0001) // Begin OBCS MONITOR field statistics
(PID.TID 0000.0001) // =======================================================
(PID.TID 0000.0001) %MON obc_N_vVel_max               =  -6.2979604847245E-08
(PID.TID 0000.0001) %MON obc_N_vVel_min               =  -6.2979604847246E-08
(PID.TID 0000.0001) %MON obc_N_vVel_mean              =  -6.2979604847246E-08
(PID.TID 0000.0001) %MON obc_N_vVel_sd                =  -1.2306230121448E-28
(PID.TID 0000.0001) %MON obc_N_vVel_Int               =  -4.1566539199183E+00
(PID.TID 0000.0001) // =======================================================
(PID.TID 0000.0001) // End OBCS MONITOR field statistics
(PID.TID 0000.0001) // =======================================================
 cg2d: Sum(rhs),rhsMax =   3.01101362972831E+00  4.53047964300717E+02
(PID.TID 0000.0001)      cg2d_init_res =   1.55164044699261E-06
(PID.TID 0000.0001)      cg2d_iters(min,last) =      -1      72
(PID.TID 0000.0001)      cg2d_last_res =   7.94213344974596E-12
(PID.TID 0000.0001) // =======================================================
(PID.TID 0000.0001) // Begin MONITOR dynamic field statistics
(PID.TID 0000.0001) // =======================================================
(PID.TID 0000.0001) %MON time_tsnumber                =                   734
(PID.TID 0000.0001) %MON time_secondsf                =   7.3400000000000E+04
(PID.TID 0000.0001) %MON dynstat_eta_max              =   5.7975045295720E+00
(PID.TID 0000.0001) %MON dynstat_eta_min              =  -1.4174881521249E+01
(PID.TID 0000.0001) %MON dynstat_eta_mean             =  -2.5261733248706E+00
(PID.TID 0000.0001) %MON dynstat_eta_sd               =   4.9416941191385E+00
(PID.TID 0000.0001) %MON dynstat_eta_del2             =   1.9058206042463E-01
(PID.TID 0000.0001) %MON dynstat_uvel_max             =   3.1211999578886E-03
(PID.TID 0000.0001) %MON dynstat_uvel_min             =  -1.0339897020618E-02
(PID.TID 0000.0001) %MON dynstat_uvel_mean            =  -1.1273635780017E-09
(PID.TID 0000.0001) %MON dynstat_uvel_sd              =   2.7553957580227E-04
(PID.TID 0000.0001) %MON dynstat_uvel_del2            =   4.7332014215351E-07
(PID.TID 0000.0001) %MON dynstat_vvel_max             =   8.7994748117137E-03
(PID.TID 0000.0001) %MON dynstat_vvel_min             =  -2.9329388382893E-03
(PID.TID 0000.0001) %MON dynstat_vvel_mean            =  -4.9005253863463E-08
(PID.TID 0000.0001) %MON dynstat_vvel_sd              =   1.6238991619816E-04
(PID.TID 0000.0001) %MON dynstat_vvel_del2            =   4.4578968475887E-07
(PID.TID 0000.0001) %MON dynstat_wvel_max             =   3.9662548233542E-04
(PID.TID 0000.0001) %MON dynstat_wvel_min             =  -3.8583397544063E-04
(PID.TID 0000.0001) %MON dynstat_wvel_mean            =   1.7415951052980E-10
(PID.TID 0000.0001) %MON dynstat_wvel_sd              =   1.0280320993973E-05
(PID.TID 0000.0001) %MON dynstat_wvel_del2            =   4.1867211842656E-08
(PID.TID 0000.0001) %MON dynstat_theta_max            =   1.2000000000000E+00
(PID.TID 0000.0001) %MON dynstat_theta_min            =  -1.0000000000000E+00
(PID.TID 0000.0001) %MON dynstat_theta_mean           =   5.6533449639676E-01
(PID.TID 0000.0001) %MON dynstat_theta_sd             =   8.4902404811069E-01
(PID.TID 0000.0001) %MON dynstat_theta_del2           =   1.2482396662455E-06
(PID.TID 0000.0001) %MON dynstat_salt_max             =   3.4700000000000E+01
(PID.TID 0000.0001) %MON dynstat_salt_min             =   3.4000000000000E+01
(PID.TID 0000.0001) %MON dynstat_salt_mean            =   3.4498047539156E+01
(PID.TID 0000.0001) %MON dynstat_salt_sd              =   2.7014409471469E-01
(PID.TID 0000.0001) %MON dynstat_salt_del2            =   4.8824545528828E-07
(PID.TID 0000.0001) %MON advcfl_uvel_max              =   1.0339897020618E-03
(PID.TID 0000.0001) %MON advcfl_vvel_max              =   8.7994748117137E-04
(PID.TID 0000.0001) %MON advcfl_wvel_max              =   1.9831274116771E-03
(PID.TID 0000.0001) %MON advcfl_W_hf_max              =   1.9831274116771E-03
(PID.TID 0000.0001) %MON pe_b_mean                    =  -6.8257803222825E-01
(PID.TID 0000.0001) %MON ke_max                       =   3.2843685309630E-05
(PID.TID 0000.0001) %MON ke_mean                      =   5.0432253582433E-08
(PID.TID 0000.0001) %MON ke_vol                       =   4.6182945130336E+12
(PID.TID 0000.0001) // =======================================================
(PID.TID 0000.0001) // End MONITOR dynamic field statistics
(PID.TID 0000.0001) // =======================================================
(PID.TID 0000.0001) // =======================================================
(PID.TID 0000.0001) // Begin OBCS MONITOR field statistics
(PID.TID 0000.0001) // =======================================================
(PID.TID 0000.0001) %MON obc_N_vVel_max               =  -6.3167415927019E-08
(PID.TID 0000.0001) %MON obc_N_vVel_min               =  -6.3167415927021E-08
(PID.TID 0000.0001) %MON obc_N_vVel_mean              =  -6.3167415927021E-08
(PID.TID 0000.0001) %MON obc_N_vVel_sd                =  -3.0607803122575E-28
(PID.TID 0000.0001) %MON obc_N_vVel_Int               =  -4.1690494511834E+00
(PID.TID 0000.0001) // =======================================================
(PID.TID 0000.0001) // End OBCS MONITOR field statistics
(PID.TID 0000.0001) // =======================================================
 cg2d: Sum(rhs),rhsMax =   3.01101018784739E+00  4.53047955525443E+02
(PID.TID 0000.0001)      cg2d_init_res =   1.54551446645104E-06
(PID.TID 0000.0001)      cg2d_iters(min,last) =      -1      72
(PID.TID 0000.0001)      cg2d_last_res =   7.96732158874588E-12
(PID.TID 0000.0001) // =======================================================
(PID.TID 0000.0001) // Begin MONITOR dynamic field statistics
(PID.TID 0000.0001) // =======================================================
(PID.TID 0000.0001) %MON time_tsnumber                =                   735
(PID.TID 0000.0001) %MON time_secondsf                =   7.3500000000000E+04
(PID.TID 0000.0001) %MON dynstat_eta_max              =   5.7975072471582E+00
(PID.TID 0000.0001) %MON dynstat_eta_min              =  -1.4174876932512E+01
(PID.TID 0000.0001) %MON dynstat_eta_mean             =  -2.5261703882788E+00
(PID.TID 0000.0001) %MON dynstat_eta_sd               =   4.9416932149742E+00
(PID.TID 0000.0001) %MON dynstat_eta_del2             =   1.9058206622453E-01
(PID.TID 0000.0001) %MON dynstat_uvel_max             =   3.1262482773950E-03
(PID.TID 0000.0001) %MON dynstat_uvel_min             =  -1.0369305498100E-02
(PID.TID 0000.0001) %MON dynstat_uvel_mean            =  -1.1255220074633E-09
(PID.TID 0000.0001) %MON dynstat_uvel_sd              =   2.7621841902686E-04
(PID.TID 0000.0001) %MON dynstat_uvel_del2            =   4.7434683078734E-07
(PID.TID 0000.0001) %MON dynstat_vvel_max             =   8.8178075704906E-03
(PID.TID 0000.0001) %MON dynstat_vvel_min             =  -2.9410488542938E-03
(PID.TID 0000.0001) %MON dynstat_vvel_mean            =  -4.9230597040280E-08
(PID.TID 0000.0001) %MON dynstat_vvel_sd              =   1.6272320805730E-04
(PID.TID 0000.0001) %MON dynstat_vvel_del2            =   4.4647955379856E-07
(PID.TID 0000.0001) %MON dynstat_wvel_max             =   3.9790727530364E-04
(PID.TID 0000.0001) %MON dynstat_wvel_min             =  -3.8715273847197E-04
(PID.TID 0000.0001) %MON dynstat_wvel_mean            =   1.7420270930064E-10
(PID.TID 0000.0001) %MON dynstat_wvel_sd              =   1.0199642169946E-05
(PID.TID 0000.0001) %MON dynstat_wvel_del2            =   4.1177669486741E-08
(PID.TID 0000.0001) %MON dynstat_theta_max            =   1.2000000000000E+00
(PID.TID 0000.0001) %MON dynstat_theta_min            =  -1.0000000000000E+00
(PID.TID 0000.0001) %MON dynstat_theta_mean           =   5.6533417606870E-01
(PID.TID 0000.0001) %MON dynstat_theta_sd             =   8.4902393258693E-01
(PID.TID 0000.0001) %MON dynstat_theta_del2           =   1.2507822686371E-06
(PID.TID 0000.0001) %MON dynstat_salt_max             =   3.4700000000000E+01
(PID.TID 0000.0001) %MON dynstat_salt_min             =   3.4000000000000E+01
(PID.TID 0000.0001) %MON dynstat_salt_mean            =   3.4498047411723E+01
(PID.TID 0000.0001) %MON dynstat_salt_sd              =   2.7014405345655E-01
(PID.TID 0000.0001) %MON dynstat_salt_del2            =   4.8926042563266E-07
(PID.TID 0000.0001) %MON advcfl_uvel_max              =   1.0369305498100E-03
(PID.TID 0000.0001) %MON advcfl_vvel_max              =   8.8178075704906E-04
(PID.TID 0000.0001) %MON advcfl_wvel_max              =   1.9895363765182E-03
(PID.TID 0000.0001) %MON advcfl_W_hf_max              =   1.9895363765182E-03
(PID.TID 0000.0001) %MON pe_b_mean                    =  -6.8257720240747E-01
(PID.TID 0000.0001) %MON ke_max                       =   3.3029938475046E-05
(PID.TID 0000.0001) %MON ke_mean                      =   5.0670188752064E-08
(PID.TID 0000.0001) %MON ke_vol                       =   4.6182945304503E+12
(PID.TID 0000.0001) // =======================================================
(PID.TID 0000.0001) // End MONITOR dynamic field statistics
(PID.TID 0000.0001) // =======================================================
(PID.TID 0000.0001) // =======================================================
(PID.TID 0000.0001) // Begin OBCS MONITOR field statistics
(PID.TID 0000.0001) // =======================================================
(PID.TID 0000.0001) %MON obc_N_vVel_max               =  -6.3381057834047E-08
(PID.TID 0000.0001) %MON obc_N_vVel_min               =  -6.3381057834050E-08
(PID.TID 0000.0001) %MON obc_N_vVel_mean              =  -6.3381057834047E-08
(PID.TID 0000.0001) %MON obc_N_vVel_sd                =   1.4567209187228E-14
(PID.TID 0000.0001) %MON obc_N_vVel_Int               =  -4.1831498170471E+00
(PID.TID 0000.0001) // =======================================================
(PID.TID 0000.0001) // End OBCS MONITOR field statistics
(PID.TID 0000.0001) // =======================================================
 cg2d: Sum(rhs),rhsMax =   3.01100674051712E+00  4.53047946757765E+02
(PID.TID 0000.0001)      cg2d_init_res =   1.54102456118582E-06
(PID.TID 0000.0001)      cg2d_iters(min,last) =      -1      72
(PID.TID 0000.0001)      cg2d_last_res =   7.99204942321890E-12
(PID.TID 0000.0001) // =======================================================
(PID.TID 0000.0001) // Begin MONITOR dynamic field statistics
(PID.TID 0000.0001) // =======================================================
(PID.TID 0000.0001) %MON time_tsnumber                =                   736
(PID.TID 0000.0001) %MON time_secondsf                =   7.3600000000000E+04
(PID.TID 0000.0001) %MON dynstat_eta_max              =   5.7975099677324E+00
(PID.TID 0000.0001) %MON dynstat_eta_min              =  -1.4174872337349E+01
(PID.TID 0000.0001) %MON dynstat_eta_mean             =  -2.5261674471575E+00
(PID.TID 0000.0001) %MON dynstat_eta_sd               =   4.9416923095479E+00
(PID.TID 0000.0001) %MON dynstat_eta_del2             =   1.9058207204059E-01
(PID.TID 0000.0001) %MON dynstat_uvel_max             =   3.1313002748448E-03
(PID.TID 0000.0001) %MON dynstat_uvel_min             =  -1.0398780656144E-02
(PID.TID 0000.0001) %MON dynstat_uvel_mean            =  -1.1240794020144E-09
(PID.TID 0000.0001) %MON dynstat_uvel_sd              =   2.7690006893343E-04
(PID.TID 0000.0001) %MON dynstat_uvel_del2            =   4.7537618402595E-07
(PID.TID 0000.0001) %MON dynstat_vvel_max             =   8.8361671514492E-03
(PID.TID 0000.0001) %MON dynstat_vvel_min             =  -2.9491716891412E-03
(PID.TID 0000.0001) %MON dynstat_vvel_mean            =  -4.9469760744289E-08
(PID.TID 0000.0001) %MON dynstat_vvel_sd              =   1.6306304443758E-04
(PID.TID 0000.0001) %MON dynstat_vvel_del2            =   4.4722653404781E-07
(PID.TID 0000.0001) %MON dynstat_wvel_max             =   3.9919192485367E-04
(PID.TID 0000.0001) %MON dynstat_wvel_min             =  -3.8847625359870E-04
(PID.TID 0000.0001) %MON dynstat_wvel_mean            =   1.7430761575595E-10
(PID.TID 0000.0001) %MON dynstat_wvel_sd              =   1.0143368135305E-05
(PID.TID 0000.0001) %MON dynstat_wvel_del2            =   4.0659392853472E-08
(PID.TID 0000.0001) %MON dynstat_theta_max            =   1.2000000000000E+00
(PID.TID 0000.0001) %MON dynstat_theta_min            =  -1.0000000000000E+00
(PID.TID 0000.0001) %MON dynstat_theta_mean           =   5.6533385532719E-01
(PID.TID 0000.0001) %MON dynstat_theta_sd             =   8.4902381678145E-01
(PID.TID 0000.0001) %MON dynstat_theta_del2           =   1.2532752772805E-06
(PID.TID 0000.0001) %MON dynstat_salt_max             =   3.4700000000000E+01
(PID.TID 0000.0001) %MON dynstat_salt_min             =   3.4000000000000E+01
(PID.TID 0000.0001) %MON dynstat_salt_mean            =   3.4498047284120E+01
(PID.TID 0000.0001) %MON dynstat_salt_sd              =   2.7014401208697E-01
(PID.TID 0000.0001) %MON dynstat_salt_del2            =   4.9026340025371E-07
(PID.TID 0000.0001) %MON advcfl_uvel_max              =   1.0398780656144E-03
(PID.TID 0000.0001) %MON advcfl_vvel_max              =   8.8361671514492E-04
(PID.TID 0000.0001) %MON advcfl_wvel_max              =   1.9959596242684E-03
(PID.TID 0000.0001) %MON advcfl_W_hf_max              =   1.9959596242684E-03
(PID.TID 0000.0001) %MON pe_b_mean                    =  -6.8257637118756E-01
(PID.TID 0000.0001) %MON ke_max                       =   3.3217148137268E-05
(PID.TID 0000.0001) %MON ke_mean                      =   5.0910516838008E-08
(PID.TID 0000.0001) %MON ke_vol                       =   4.6182945478936E+12
(PID.TID 0000.0001) // =======================================================
(PID.TID 0000.0001) // End MONITOR dynamic field statistics
(PID.TID 0000.0001) // =======================================================
(PID.TID 0000.0001) // =======================================================
(PID.TID 0000.0001) // Begin OBCS MONITOR field statistics
(PID.TID 0000.0001) // =======================================================
(PID.TID 0000.0001) %MON obc_N_vVel_max               =  -6.3612528321565E-08
(PID.TID 0000.0001) %MON obc_N_vVel_min               =  -6.3612528321566E-08
(PID.TID 0000.0001) %MON obc_N_vVel_mean              =  -6.3612528321566E-08
(PID.TID 0000.0001) %MON obc_N_vVel_sd                =  -2.0668155716791E-28
(PID.TID 0000.0001) %MON obc_N_vVel_Int               =  -4.1984268692233E+00
(PID.TID 0000.0001) // =======================================================
(PID.TID 0000.0001) // End OBCS MONITOR field statistics
(PID.TID 0000.0001) // =======================================================
 cg2d: Sum(rhs),rhsMax =   3.01100328770011E+00  4.53047937998104E+02
(PID.TID 0000.0001)      cg2d_init_res =   1.53875056746076E-06
(PID.TID 0000.0001)      cg2d_iters(min,last) =      -1      72
(PID.TID 0000.0001)      cg2d_last_res =   8.01607653291652E-12
(PID.TID 0000.0001) // =======================================================
(PID.TID 0000.0001) // Begin MONITOR dynamic field statistics
(PID.TID 0000.0001) // =======================================================
(PID.TID 0000.0001) %MON time_tsnumber                =                   737
(PID.TID 0000.0001) %MON time_secondsf                =   7.3700000000000E+04
(PID.TID 0000.0001) %MON dynstat_eta_max              =   5.7975126913694E+00
(PID.TID 0000.0001) %MON dynstat_eta_min              =  -1.4174867735556E+01
(PID.TID 0000.0001) %MON dynstat_eta_mean             =  -2.5261645014779E+00
(PID.TID 0000.0001) %MON dynstat_eta_sd               =   4.9416914028589E+00
(PID.TID 0000.0001) %MON dynstat_eta_del2             =   1.9058207787291E-01
(PID.TID 0000.0001) %MON dynstat_uvel_max             =   3.1363559007644E-03
(PID.TID 0000.0001) %MON dynstat_uvel_min             =  -1.0428322567873E-02
(PID.TID 0000.0001) %MON dynstat_uvel_mean            =  -1.1230621122760E-09
(PID.TID 0000.0001) %MON dynstat_uvel_sd              =   2.7758452747593E-04
(PID.TID 0000.0001) %MON dynstat_uvel_del2            =   4.7640818508324E-07
(PID.TID 0000.0001) %MON dynstat_vvel_max             =   8.8545535541877E-03
(PID.TID 0000.0001) %MON dynstat_vvel_min             =  -2.9573073780771E-03
(PID.TID 0000.0001) %MON dynstat_vvel_mean            =  -4.9713089116491E-08
(PID.TID 0000.0001) %MON dynstat_vvel_sd              =   1.6341043036884E-04
(PID.TID 0000.0001) %MON dynstat_vvel_del2            =   4.4804058190197E-07
(PID.TID 0000.0001) %MON dynstat_wvel_max             =   4.0047943750437E-04
(PID.TID 0000.0001) %MON dynstat_wvel_min             =  -3.8980452946825E-04
(PID.TID 0000.0001) %MON dynstat_wvel_mean            =   1.7447734175939E-10
(PID.TID 0000.0001) %MON dynstat_wvel_sd              =   1.0116748975260E-05
(PID.TID 0000.0001) %MON dynstat_wvel_del2            =   4.0362024034807E-08
(PID.TID 0000.0001) %MON dynstat_theta_max            =   1.2000000000000E+00
(PID.TID 0000.0001) %MON dynstat_theta_min            =  -1.0000000000000E+00
(PID.TID 0000.0001) %MON dynstat_theta_mean           =   5.6533353415881E-01
(PID.TID 0000.0001) %MON dynstat_theta_sd             =   8.4902370069523E-01
(PID.TID 0000.0001) %MON dynstat_theta_del2           =   1.2557091790705E-06
(PID.TID 0000.0001) %MON dynstat_salt_max             =   3.4700000000000E+01
(PID.TID 0000.0001) %MON dynstat_salt_min             =   3.4000000000000E+01
(PID.TID 0000.0001) %MON dynstat_salt_mean            =   3.4498047156342E+01
(PID.TID 0000.0001) %MON dynstat_salt_sd              =   2.7014397060640E-01
(PID.TID 0000.0001) %MON dynstat_salt_del2            =   4.9125192309108E-07
(PID.TID 0000.0001) %MON advcfl_uvel_max              =   1.0428322567873E-03
(PID.TID 0000.0001) %MON advcfl_vvel_max              =   8.8545535541877E-04
(PID.TID 0000.0001) %MON advcfl_wvel_max              =   2.0023971875218E-03
(PID.TID 0000.0001) %MON advcfl_W_hf_max              =   2.0023971875218E-03
(PID.TID 0000.0001) %MON pe_b_mean                    =  -6.8257553856280E-01
(PID.TID 0000.0001) %MON ke_max                       =   3.3405318293436E-05
(PID.TID 0000.0001) %MON ke_mean                      =   5.1153414901934E-08
(PID.TID 0000.0001) %MON ke_vol                       =   4.6182945653639E+12
(PID.TID 0000.0001) // =======================================================
(PID.TID 0000.0001) // End MONITOR dynamic field statistics
(PID.TID 0000.0001) // =======================================================
(PID.TID 0000.0001) // =======================================================
(PID.TID 0000.0001) // Begin OBCS MONITOR field statistics
(PID.TID 0000.0001) // =======================================================
(PID.TID 0000.0001) %MON obc_N_vVel_max               =  -6.3853265855098E-08
(PID.TID 0000.0001) %MON obc_N_vVel_min               =  -6.3853265855100E-08
(PID.TID 0000.0001) %MON obc_N_vVel_mean              =  -6.3853265855098E-08
(PID.TID 0000.0001) %MON obc_N_vVel_sd                =   1.3902191258185E-14
(PID.TID 0000.0001) %MON obc_N_vVel_Int               =  -4.2143155464365E+00
(PID.TID 0000.0001) // =======================================================
(PID.TID 0000.0001) // End OBCS MONITOR field statistics
(PID.TID 0000.0001) // =======================================================
 cg2d: Sum(rhs),rhsMax =   3.01099982936825E+00  4.53047929246897E+02
(PID.TID 0000.0001)      cg2d_init_res =   1.53906237807180E-06
(PID.TID 0000.0001)      cg2d_iters(min,last) =      -1      72
(PID.TID 0000.0001)      cg2d_last_res =   8.03922269808741E-12
(PID.TID 0000.0001) // =======================================================
(PID.TID 0000.0001) // Begin MONITOR dynamic field statistics
(PID.TID 0000.0001) // =======================================================
(PID.TID 0000.0001) %MON time_tsnumber                =                   738
(PID.TID 0000.0001) %MON time_secondsf                =   7.3800000000000E+04
(PID.TID 0000.0001) %MON dynstat_eta_max              =   5.7975154181283E+00
(PID.TID 0000.0001) %MON dynstat_eta_min              =  -1.4174863126969E+01
(PID.TID 0000.0001) %MON dynstat_eta_mean             =  -2.5261615512186E+00
(PID.TID 0000.0001) %MON dynstat_eta_sd               =   4.9416904949082E+00
(PID.TID 0000.0001) %MON dynstat_eta_del2             =   1.9058208372155E-01
(PID.TID 0000.0001) %MON dynstat_uvel_max             =   3.1414151055191E-03
(PID.TID 0000.0001) %MON dynstat_uvel_min             =  -1.0457931305648E-02
(PID.TID 0000.0001) %MON dynstat_uvel_mean            =  -1.1224880157771E-09
(PID.TID 0000.0001) %MON dynstat_uvel_sd              =   2.7827179768590E-04
(PID.TID 0000.0001) %MON dynstat_uvel_del2            =   4.7744282929524E-07
(PID.TID 0000.0001) %MON dynstat_vvel_max             =   8.8729667776348E-03
(PID.TID 0000.0001) %MON dynstat_vvel_min             =  -2.9654559565460E-03
(PID.TID 0000.0001) %MON dynstat_vvel_mean            =  -4.9950815253655E-08
(PID.TID 0000.0001) %MON dynstat_vvel_sd              =   1.6376582577105E-04
(PID.TID 0000.0001) %MON dynstat_vvel_del2            =   4.4892595347356E-07
(PID.TID 0000.0001) %MON dynstat_wvel_max             =   4.0176981977835E-04
(PID.TID 0000.0001) %MON dynstat_wvel_min             =  -3.9113757467888E-04
(PID.TID 0000.0001) %MON dynstat_wvel_mean            =   1.7471290953866E-10
(PID.TID 0000.0001) %MON dynstat_wvel_sd              =   1.0122242509847E-05
(PID.TID 0000.0001) %MON dynstat_wvel_del2            =   4.0313627650011E-08
(PID.TID 0000.0001) %MON dynstat_theta_max            =   1.2000000000000E+00
(PID.TID 0000.0001) %MON dynstat_theta_min            =  -1.0000000000000E+00
(PID.TID 0000.0001) %MON dynstat_theta_mean           =   5.6533321254908E-01
(PID.TID 0000.0001) %MON dynstat_theta_sd             =   8.4902358432598E-01
(PID.TID 0000.0001) %MON dynstat_theta_del2           =   1.2580809626487E-06
(PID.TID 0000.0001) %MON dynstat_salt_max             =   3.4700000000000E+01
(PID.TID 0000.0001) %MON dynstat_salt_min             =   3.4000000000000E+01
(PID.TID 0000.0001) %MON dynstat_salt_mean            =   3.4498047028385E+01
(PID.TID 0000.0001) %MON dynstat_salt_sd              =   2.7014392901408E-01
(PID.TID 0000.0001) %MON dynstat_salt_del2            =   4.9222521906918E-07
(PID.TID 0000.0001) %MON advcfl_uvel_max              =   1.0457931305648E-03
(PID.TID 0000.0001) %MON advcfl_vvel_max              =   8.8729667776348E-04
(PID.TID 0000.0001) %MON advcfl_wvel_max              =   2.0088490988917E-03
(PID.TID 0000.0001) %MON advcfl_W_hf_max              =   2.0088490988917E-03
(PID.TID 0000.0001) %MON pe_b_mean                    =  -6.8257470452890E-01
(PID.TID 0000.0001) %MON ke_max                       =   3.3594452948089E-05
(PID.TID 0000.0001) %MON ke_mean                      =   5.1398972614022E-08
(PID.TID 0000.0001) %MON ke_vol                       =   4.6182945828612E+12
(PID.TID 0000.0001) // =======================================================
(PID.TID 0000.0001) // End MONITOR dynamic field statistics
(PID.TID 0000.0001) // =======================================================
(PID.TID 0000.0001) // =======================================================
(PID.TID 0000.0001) // Begin OBCS MONITOR field statistics
(PID.TID 0000.0001) // =======================================================
(PID.TID 0000.0001) %MON obc_N_vVel_max               =  -6.4094436329301E-08
(PID.TID 0000.0001) %MON obc_N_vVel_min               =  -6.4094436329302E-08
(PID.TID 0000.0001) %MON obc_N_vVel_mean              =  -6.4094436329301E-08
(PID.TID 0000.0001) %MON obc_N_vVel_sd                =   1.2113138667212E-14
(PID.TID 0000.0001) %MON obc_N_vVel_Int               =  -4.2302327977339E+00
(PID.TID 0000.0001) // =======================================================
(PID.TID 0000.0001) // End OBCS MONITOR field statistics
(PID.TID 0000.0001) // =======================================================
 cg2d: Sum(rhs),rhsMax =   3.01099636550578E+00  4.53047920504623E+02
(PID.TID 0000.0001)      cg2d_init_res =   1.54210027012258E-06
(PID.TID 0000.0001)      cg2d_iters(min,last) =      -1      72
(PID.TID 0000.0001)      cg2d_last_res =   8.06160093847972E-12
(PID.TID 0000.0001) // =======================================================
(PID.TID 0000.0001) // Begin MONITOR dynamic field statistics
(PID.TID 0000.0001) // =======================================================
(PID.TID 0000.0001) %MON time_tsnumber                =                   739
(PID.TID 0000.0001) %MON time_secondsf                =   7.3900000000000E+04
(PID.TID 0000.0001) %MON dynstat_eta_max              =   5.7975181480424E+00
(PID.TID 0000.0001) %MON dynstat_eta_min              =  -1.4174858511430E+01
(PID.TID 0000.0001) %MON dynstat_eta_mean             =  -2.5261585963692E+00
(PID.TID 0000.0001) %MON dynstat_eta_sd               =   4.9416895857025E+00
(PID.TID 0000.0001) %MON dynstat_eta_del2             =   1.9058208958657E-01
(PID.TID 0000.0001) %MON dynstat_uvel_max             =   3.1464778393424E-03
(PID.TID 0000.0001) %MON dynstat_uvel_min             =  -1.0487606941351E-02
(PID.TID 0000.0001) %MON dynstat_uvel_mean            =  -1.1223645322058E-09
(PID.TID 0000.0001) %MON dynstat_uvel_sd              =   2.7896188374736E-04
(PID.TID 0000.0001) %MON dynstat_uvel_del2            =   4.7848012410652E-07
(PID.TID 0000.0001) %MON dynstat_vvel_max             =   8.8914068200068E-03
(PID.TID 0000.0001) %MON dynstat_vvel_min             =  -2.9736174602046E-03
(PID.TID 0000.0001) %MON dynstat_vvel_mean            =  -5.0173385755933E-08
(PID.TID 0000.0001) %MON dynstat_vvel_sd              =   1.6412911731990E-04
(PID.TID 0000.0001) %MON dynstat_vvel_del2            =   4.4988092467783E-07
(PID.TID 0000.0001) %MON dynstat_wvel_max             =   4.0306307818799E-04
(PID.TID 0000.0001) %MON dynstat_wvel_min             =  -3.9247539777906E-04
(PID.TID 0000.0001) %MON dynstat_wvel_mean            =   1.7501316946667E-10
(PID.TID 0000.0001) %MON dynstat_wvel_sd              =   1.0159252669735E-05
(PID.TID 0000.0001) %MON dynstat_wvel_del2            =   4.0516578887155E-08
(PID.TID 0000.0001) %MON dynstat_theta_max            =   1.2000000000000E+00
(PID.TID 0000.0001) %MON dynstat_theta_min            =  -1.0000000000000E+00
(PID.TID 0000.0001) %MON dynstat_theta_mean           =   5.6533289048314E-01
(PID.TID 0000.0001) %MON dynstat_theta_sd             =   8.4902346766925E-01
(PID.TID 0000.0001) %MON dynstat_theta_del2           =   1.2603942735723E-06
(PID.TID 0000.0001) %MON dynstat_salt_max             =   3.4700000000000E+01
(PID.TID 0000.0001) %MON dynstat_salt_min             =   3.4000000000000E+01
(PID.TID 0000.0001) %MON dynstat_salt_mean            =   3.4498046900242E+01
(PID.TID 0000.0001) %MON dynstat_salt_sd              =   2.7014388730840E-01
(PID.TID 0000.0001) %MON dynstat_salt_del2            =   4.9318423955497E-07
(PID.TID 0000.0001) %MON advcfl_uvel_max              =   1.0487606941351E-03
(PID.TID 0000.0001) %MON advcfl_vvel_max              =   8.8914068200068E-04
(PID.TID 0000.0001) %MON advcfl_wvel_max              =   2.0153153909400E-03
(PID.TID 0000.0001) %MON advcfl_W_hf_max              =   2.0153153909400E-03
(PID.TID 0000.0001) %MON pe_b_mean                    =  -6.8257386908399E-01
(PID.TID 0000.0001) %MON ke_max                       =   3.3784556114940E-05
(PID.TID 0000.0001) %MON ke_mean                      =   5.1647186747303E-08
(PID.TID 0000.0001) %MON ke_vol                       =   4.6182946003858E+12
(PID.TID 0000.0001) // =======================================================
(PID.TID 0000.0001) // End MONITOR dynamic field statistics
(PID.TID 0000.0001) // =======================================================
(PID.TID 0000.0001) // =======================================================
(PID.TID 0000.0001) // Begin OBCS MONITOR field statistics
(PID.TID 0000.0001) // =======================================================
(PID.TID 0000.0001) %MON obc_N_vVel_max               =  -6.4327216566891E-08
(PID.TID 0000.0001) %MON obc_N_vVel_min               =  -6.4327216566892E-08
(PID.TID 0000.0001) %MON obc_N_vVel_mean              =  -6.4327216566892E-08
(PID.TID 0000.0001) %MON obc_N_vVel_sd                =  -2.1299244440967E-29
(PID.TID 0000.0001) %MON obc_N_vVel_Int               =  -4.2455962934149E+00
(PID.TID 0000.0001) // =======================================================
(PID.TID 0000.0001) // End OBCS MONITOR field statistics
(PID.TID 0000.0001) // =======================================================
 cg2d: Sum(rhs),rhsMax =   3.01099289610881E+00  4.53047911771720E+02
(PID.TID 0000.0001)      cg2d_init_res =   1.54776903341695E-06
(PID.TID 0000.0001)      cg2d_iters(min,last) =      -1      72
(PID.TID 0000.0001)      cg2d_last_res =   8.08341719823199E-12
(PID.TID 0000.0001) // =======================================================
(PID.TID 0000.0001) // Begin MONITOR dynamic field statistics
(PID.TID 0000.0001) // =======================================================
(PID.TID 0000.0001) %MON time_tsnumber                =                   740
(PID.TID 0000.0001) %MON time_secondsf                =   7.4000000000000E+04
(PID.TID 0000.0001) %MON dynstat_eta_max              =   5.7975208811322E+00
(PID.TID 0000.0001) %MON dynstat_eta_min              =  -1.4174853888814E+01
(PID.TID 0000.0001) %MON dynstat_eta_mean             =  -2.5261556369289E+00
(PID.TID 0000.0001) %MON dynstat_eta_sd               =   4.9416886752480E+00
(PID.TID 0000.0001) %MON dynstat_eta_del2             =   1.9058209546790E-01
(PID.TID 0000.0001) %MON dynstat_uvel_max             =   3.1515440513239E-03
(PID.TID 0000.0001) %MON dynstat_uvel_min             =  -1.0517349546113E-02
(PID.TID 0000.0001) %MON dynstat_uvel_mean            =  -1.1226809936086E-09
(PID.TID 0000.0001) %MON dynstat_uvel_sd              =   2.7965479100714E-04
(PID.TID 0000.0001) %MON dynstat_uvel_del2            =   4.7952008825303E-07
(PID.TID 0000.0001) %MON dynstat_vvel_max             =   8.9098736782118E-03
(PID.TID 0000.0001) %MON dynstat_vvel_min             =  -2.9817919248787E-03
(PID.TID 0000.0001) %MON dynstat_vvel_mean            =  -5.0371787116614E-08
(PID.TID 0000.0001) %MON dynstat_vvel_sd              =   1.6449963991228E-04
(PID.TID 0000.0001) %MON dynstat_vvel_del2            =   4.5089803544090E-07
(PID.TID 0000.0001) %MON dynstat_wvel_max             =   4.0435921924911E-04
(PID.TID 0000.0001) %MON dynstat_wvel_min             =  -3.9381800725178E-04
(PID.TID 0000.0001) %MON dynstat_wvel_mean            =   1.7537507281814E-10
(PID.TID 0000.0001) %MON dynstat_wvel_sd              =   1.0224238473842E-05
(PID.TID 0000.0001) %MON dynstat_wvel_del2            =   4.0947374957626E-08
(PID.TID 0000.0001) %MON dynstat_theta_max            =   1.2000000000000E+00
(PID.TID 0000.0001) %MON dynstat_theta_min            =  -1.0000000000000E+00
(PID.TID 0000.0001) %MON dynstat_theta_mean           =   5.6533256794586E-01
(PID.TID 0000.0001) %MON dynstat_theta_sd             =   8.4902335071550E-01
(PID.TID 0000.0001) %MON dynstat_theta_del2           =   1.2626588908583E-06
(PID.TID 0000.0001) %MON dynstat_salt_max             =   3.4700000000000E+01
(PID.TID 0000.0001) %MON dynstat_salt_min             =   3.4000000000000E+01
(PID.TID 0000.0001) %MON dynstat_salt_mean            =   3.4498046771910E+01
(PID.TID 0000.0001) %MON dynstat_salt_sd              =   2.7014384548627E-01
(PID.TID 0000.0001) %MON dynstat_salt_del2            =   4.9413152507940E-07
(PID.TID 0000.0001) %MON advcfl_uvel_max              =   1.0517349546113E-03
(PID.TID 0000.0001) %MON advcfl_vvel_max              =   8.9098736782118E-04
(PID.TID 0000.0001) %MON advcfl_wvel_max              =   2.0217960962456E-03
(PID.TID 0000.0001) %MON advcfl_W_hf_max              =   2.0217960962456E-03
(PID.TID 0000.0001) %MON pe_b_mean                    =  -6.8257303222789E-01
(PID.TID 0000.0001) %MON ke_max                       =   3.3975631815192E-05
(PID.TID 0000.0001) %MON ke_mean                      =   5.1897963688140E-08
(PID.TID 0000.0001) %MON ke_vol                       =   4.6182946179376E+12
(PID.TID 0000.0001) // =======================================================
(PID.TID 0000.0001) // End MONITOR dynamic field statistics
(PID.TID 0000.0001) // =======================================================
(PID.TID 0000.0001) // =======================================================
(PID.TID 0000.0001) // Begin OBCS MONITOR field statistics
(PID.TID 0000.0001) // =======================================================
(PID.TID 0000.0001) %MON obc_N_vVel_max               =  -6.4543086878964E-08
(PID.TID 0000.0001) %MON obc_N_vVel_min               =  -6.4543086878965E-08
(PID.TID 0000.0001) %MON obc_N_vVel_mean              =  -6.4543086878965E-08
(PID.TID 0000.0001) %MON obc_N_vVel_sd                =   3.8714799753065E-15
(PID.TID 0000.0001) %MON obc_N_vVel_Int               =  -4.2598437340117E+00
(PID.TID 0000.0001) // =======================================================
(PID.TID 0000.0001) // End OBCS MONITOR field statistics
(PID.TID 0000.0001) // =======================================================
 cg2d: Sum(rhs),rhsMax =   3.01098942118355E+00  4.53047903048724E+02
(PID.TID 0000.0001)      cg2d_init_res =   1.55573325235176E-06
(PID.TID 0000.0001)      cg2d_iters(min,last) =      -1      72
(PID.TID 0000.0001)      cg2d_last_res =   8.10510103759469E-12
(PID.TID 0000.0001) // =======================================================
(PID.TID 0000.0001) // Begin MONITOR dynamic field statistics
(PID.TID 0000.0001) // =======================================================
(PID.TID 0000.0001) %MON time_tsnumber                =                   741
(PID.TID 0000.0001) %MON time_secondsf                =   7.4100000000000E+04
(PID.TID 0000.0001) %MON dynstat_eta_max              =   5.7975236173962E+00
(PID.TID 0000.0001) %MON dynstat_eta_min              =  -1.4174849259001E+01
(PID.TID 0000.0001) %MON dynstat_eta_mean             =  -2.5261526729057E+00
(PID.TID 0000.0001) %MON dynstat_eta_sd               =   4.9416877635549E+00
(PID.TID 0000.0001) %MON dynstat_eta_del2             =   1.9058210136553E-01
(PID.TID 0000.0001) %MON dynstat_uvel_max             =   3.1566136921644E-03
(PID.TID 0000.0001) %MON dynstat_uvel_min             =  -1.0547159190353E-02
(PID.TID 0000.0001) %MON dynstat_uvel_mean            =  -1.1234048061788E-09
(PID.TID 0000.0001) %MON dynstat_uvel_sd              =   2.8035052592430E-04
(PID.TID 0000.0001) %MON dynstat_uvel_del2            =   4.8056275035384E-07
(PID.TID 0000.0001) %MON dynstat_vvel_max             =   8.9283673491682E-03
(PID.TID 0000.0001) %MON dynstat_vvel_min             =  -2.9899793867099E-03
(PID.TID 0000.0001) %MON dynstat_vvel_mean            =  -5.0537830833574E-08
(PID.TID 0000.0001) %MON dynstat_vvel_sd              =   1.6487624490102E-04
(PID.TID 0000.0001) %MON dynstat_vvel_del2            =   4.5196482901349E-07
(PID.TID 0000.0001) %MON dynstat_wvel_max             =   4.0565824011558E-04
(PID.TID 0000.0001) %MON dynstat_wvel_min             =  -3.9516541152979E-04
(PID.TID 0000.0001) %MON dynstat_wvel_mean            =   1.7579337805516E-10
(PID.TID 0000.0001) %MON dynstat_wvel_sd              =   1.0311170283034E-05
(PID.TID 0000.0001) %MON dynstat_wvel_del2            =   4.1560446804240E-08
(PID.TID 0000.0001) %MON dynstat_theta_max            =   1.2000000000000E+00
(PID.TID 0000.0001) %MON dynstat_theta_min            =  -1.0000000000000E+00
(PID.TID 0000.0001) %MON dynstat_theta_mean           =   5.6533224492218E-01
(PID.TID 0000.0001) %MON dynstat_theta_sd             =   8.4902323345530E-01
(PID.TID 0000.0001) %MON dynstat_theta_del2           =   1.2648899408646E-06
(PID.TID 0000.0001) %MON dynstat_salt_max             =   3.4700000000000E+01
(PID.TID 0000.0001) %MON dynstat_salt_min             =   3.4000000000000E+01
(PID.TID 0000.0001) %MON dynstat_salt_mean            =   3.4498046643384E+01
(PID.TID 0000.0001) %MON dynstat_salt_sd              =   2.7014380354467E-01
(PID.TID 0000.0001) %MON dynstat_salt_del2            =   4.9507099669370E-07
(PID.TID 0000.0001) %MON advcfl_uvel_max              =   1.0547159190353E-03
(PID.TID 0000.0001) %MON advcfl_vvel_max              =   8.9283673491682E-04
(PID.TID 0000.0001) %MON advcfl_wvel_max              =   2.0282912005779E-03
(PID.TID 0000.0001) %MON advcfl_W_hf_max              =   2.0282912005779E-03
(PID.TID 0000.0001) %MON pe_b_mean                    =  -6.8257219396226E-01
(PID.TID 0000.0001) %MON ke_max                       =   3.4167684077410E-05
(PID.TID 0000.0001) %MON ke_mean                      =   5.2151129625641E-08
(PID.TID 0000.0001) %MON ke_vol                       =   4.6182946355166E+12
(PID.TID 0000.0001) // =======================================================
(PID.TID 0000.0001) // End MONITOR dynamic field statistics
(PID.TID 0000.0001) // =======================================================
(PID.TID 0000.0001) // =======================================================
(PID.TID 0000.0001) // Begin OBCS MONITOR field statistics
(PID.TID 0000.0001) // =======================================================
(PID.TID 0000.0001) %MON obc_N_vVel_max               =  -6.4734075953044E-08
(PID.TID 0000.0001) %MON obc_N_vVel_min               =  -6.4734075953045E-08
(PID.TID 0000.0001) %MON obc_N_vVel_mean              =  -6.4734075953044E-08
(PID.TID 0000.0001) %MON obc_N_vVel_sd                =   1.3873790429220E-14
(PID.TID 0000.0001) %MON obc_N_vVel_Int               =  -4.2724490129009E+00
(PID.TID 0000.0001) // =======================================================
(PID.TID 0000.0001) // End OBCS MONITOR field statistics
(PID.TID 0000.0001) // =======================================================
 cg2d: Sum(rhs),rhsMax =   3.01098594075202E+00  4.53047894335595E+02
(PID.TID 0000.0001)      cg2d_init_res =   1.56545296780780E-06
(PID.TID 0000.0001)      cg2d_iters(min,last) =      -1      72
(PID.TID 0000.0001)      cg2d_last_res =   8.12711287249298E-12
(PID.TID 0000.0001) // =======================================================
(PID.TID 0000.0001) // Begin MONITOR dynamic field statistics
(PID.TID 0000.0001) // =======================================================
(PID.TID 0000.0001) %MON time_tsnumber                =                   742
(PID.TID 0000.0001) %MON time_secondsf                =   7.4200000000000E+04
(PID.TID 0000.0001) %MON dynstat_eta_max              =   5.7975263568174E+00
(PID.TID 0000.0001) %MON dynstat_eta_min              =  -1.4174844621903E+01
(PID.TID 0000.0001) %MON dynstat_eta_mean             =  -2.5261497043181E+00
(PID.TID 0000.0001) %MON dynstat_eta_sd               =   4.9416868506348E+00
(PID.TID 0000.0001) %MON dynstat_eta_del2             =   1.9058210727945E-01
(PID.TID 0000.0001) %MON dynstat_uvel_max             =   3.1616867083990E-03
(PID.TID 0000.0001) %MON dynstat_uvel_min             =  -1.0577035943820E-02
(PID.TID 0000.0001) %MON dynstat_uvel_mean            =  -1.1244863760992E-09
(PID.TID 0000.0001) %MON dynstat_uvel_sd              =   2.8104909590392E-04
(PID.TID 0000.0001) %MON dynstat_uvel_del2            =   4.8160814568086E-07
(PID.TID 0000.0001) %MON dynstat_vvel_max             =   8.9468878279229E-03
(PID.TID 0000.0001) %MON dynstat_vvel_min             =  -2.9981798820486E-03
(PID.TID 0000.0001) %MON dynstat_vvel_mean            =  -5.0664375220395E-08
(PID.TID 0000.0001) %MON dynstat_vvel_sd              =   1.6525740861090E-04
(PID.TID 0000.0001) %MON dynstat_vvel_del2            =   4.5306501299414E-07
(PID.TID 0000.0001) %MON dynstat_wvel_max             =   4.0696020651498E-04
(PID.TID 0000.0001) %MON dynstat_wvel_min             =  -3.9651761900965E-04
(PID.TID 0000.0001) %MON dynstat_wvel_mean            =   1.7626146262412E-10
(PID.TID 0000.0001) %MON dynstat_wvel_sd              =   1.0412241327457E-05
(PID.TID 0000.0001) %MON dynstat_wvel_del2            =   4.2294830952532E-08
(PID.TID 0000.0001) %MON dynstat_theta_max            =   1.2000000000000E+00
(PID.TID 0000.0001) %MON dynstat_theta_min            =  -1.0000000000000E+00
(PID.TID 0000.0001) %MON dynstat_theta_mean           =   5.6533192139757E-01
(PID.TID 0000.0001) %MON dynstat_theta_sd             =   8.4902311589138E-01
(PID.TID 0000.0001) %MON dynstat_theta_del2           =   1.2671066744938E-06
(PID.TID 0000.0001) %MON dynstat_salt_max             =   3.4700000000000E+01
(PID.TID 0000.0001) %MON dynstat_salt_min             =   3.4000000000000E+01
(PID.TID 0000.0001) %MON dynstat_salt_mean            =   3.4498046514658E+01
(PID.TID 0000.0001) %MON dynstat_salt_sd              =   2.7014376148435E-01
(PID.TID 0000.0001) %MON dynstat_salt_del2            =   4.9600763234646E-07
(PID.TID 0000.0001) %MON advcfl_uvel_max              =   1.0577035943820E-03
(PID.TID 0000.0001) %MON advcfl_vvel_max              =   8.9468878279229E-04
(PID.TID 0000.0001) %MON advcfl_wvel_max              =   2.0348010325749E-03
(PID.TID 0000.0001) %MON advcfl_W_hf_max              =   2.0348010325749E-03
(PID.TID 0000.0001) %MON pe_b_mean                    =  -6.8257135429067E-01
(PID.TID 0000.0001) %MON ke_max                       =   3.4360716937682E-05
(PID.TID 0000.0001) %MON ke_mean                      =   5.2406447472853E-08
(PID.TID 0000.0001) %MON ke_vol                       =   4.6182946531229E+12
(PID.TID 0000.0001) // =======================================================
(PID.TID 0000.0001) // End MONITOR dynamic field statistics
(PID.TID 0000.0001) // =======================================================
(PID.TID 0000.0001) // =======================================================
(PID.TID 0000.0001) // Begin OBCS MONITOR field statistics
(PID.TID 0000.0001) // =======================================================
(PID.TID 0000.0001) %MON obc_N_vVel_max               =  -6.4893042140211E-08
(PID.TID 0000.0001) %MON obc_N_vVel_min               =  -6.4893042140213E-08
(PID.TID 0000.0001) %MON obc_N_vVel_mean              =  -6.4893042140213E-08
(PID.TID 0000.0001) %MON obc_N_vVel_sd                =  -1.6960509462252E-28
(PID.TID 0000.0001) %MON obc_N_vVel_Int               =  -4.2829407812540E+00
(PID.TID 0000.0001) // =======================================================
(PID.TID 0000.0001) // End OBCS MONITOR field statistics
(PID.TID 0000.0001) // =======================================================
 cg2d: Sum(rhs),rhsMax =   3.01098245484005E+00  4.53047885632941E+02
(PID.TID 0000.0001)      cg2d_init_res =   1.57626145754851E-06
(PID.TID 0000.0001)      cg2d_iters(min,last) =      -1      72
(PID.TID 0000.0001)      cg2d_last_res =   8.14965734363179E-12
(PID.TID 0000.0001) // =======================================================
(PID.TID 0000.0001) // Begin MONITOR dynamic field statistics
(PID.TID 0000.0001) // =======================================================
(PID.TID 0000.0001) %MON time_tsnumber                =                   743
(PID.TID 0000.0001) %MON time_secondsf                =   7.4300000000000E+04
(PID.TID 0000.0001) %MON dynstat_eta_max              =   5.7975290993673E+00
(PID.TID 0000.0001) %MON dynstat_eta_min              =  -1.4174839977428E+01
(PID.TID 0000.0001) %MON dynstat_eta_mean             =  -2.5261467311910E+00
(PID.TID 0000.0001) %MON dynstat_eta_sd               =   4.9416859365001E+00
(PID.TID 0000.0001) %MON dynstat_eta_del2             =   1.9058211320966E-01
(PID.TID 0000.0001) %MON dynstat_uvel_max             =   3.1667630506629E-03
(PID.TID 0000.0001) %MON dynstat_uvel_min             =  -1.0606979875592E-02
(PID.TID 0000.0001) %MON dynstat_uvel_mean            =  -1.1258583658946E-09
(PID.TID 0000.0001) %MON dynstat_uvel_sd              =   2.8175050926818E-04
(PID.TID 0000.0001) %MON dynstat_uvel_del2            =   4.8265631612024E-07
(PID.TID 0000.0001) %MON dynstat_vvel_max             =   8.9654351079913E-03
(PID.TID 0000.0001) %MON dynstat_vvel_min             =  -3.0063934476239E-03
(PID.TID 0000.0001) %MON dynstat_vvel_mean            =  -5.0745516495203E-08
(PID.TID 0000.0001) %MON dynstat_vvel_sd              =   1.6564137012404E-04
(PID.TID 0000.0001) %MON dynstat_vvel_del2            =   4.5417992918287E-07
(PID.TID 0000.0001) %MON dynstat_wvel_max             =   4.0826512577328E-04
(PID.TID 0000.0001) %MON dynstat_wvel_min             =  -3.9787463767655E-04
(PID.TID 0000.0001) %MON dynstat_wvel_mean            =   1.7677051296485E-10
(PID.TID 0000.0001) %MON dynstat_wvel_sd              =   1.0518706443712E-05
(PID.TID 0000.0001) %MON dynstat_wvel_del2            =   4.3081954464371E-08
(PID.TID 0000.0001) %MON dynstat_theta_max            =   1.2000000000000E+00
(PID.TID 0000.0001) %MON dynstat_theta_min            =  -1.0000000000000E+00
(PID.TID 0000.0001) %MON dynstat_theta_mean           =   5.6533159735807E-01
(PID.TID 0000.0001) %MON dynstat_theta_sd             =   8.4902299802558E-01
(PID.TID 0000.0001) %MON dynstat_theta_del2           =   1.2693304556290E-06
(PID.TID 0000.0001) %MON dynstat_salt_max             =   3.4700000000000E+01
(PID.TID 0000.0001) %MON dynstat_salt_min             =   3.4000000000000E+01
(PID.TID 0000.0001) %MON dynstat_salt_mean            =   3.4498046385728E+01
(PID.TID 0000.0001) %MON dynstat_salt_sd              =   2.7014371930599E-01
(PID.TID 0000.0001) %MON dynstat_salt_del2            =   4.9694698206763E-07
(PID.TID 0000.0001) %MON advcfl_uvel_max              =   1.0606979875592E-03
(PID.TID 0000.0001) %MON advcfl_vvel_max              =   8.9654351079913E-04
(PID.TID 0000.0001) %MON advcfl_wvel_max              =   2.0413256288664E-03
(PID.TID 0000.0001) %MON advcfl_W_hf_max              =   2.0413256288664E-03
(PID.TID 0000.0001) %MON pe_b_mean                    =  -6.8257051321783E-01
(PID.TID 0000.0001) %MON ke_max                       =   3.4554734439297E-05
(PID.TID 0000.0001) %MON ke_mean                      =   5.2663638899967E-08
(PID.TID 0000.0001) %MON ke_vol                       =   4.6182946707563E+12
(PID.TID 0000.0001) // =======================================================
(PID.TID 0000.0001) // End MONITOR dynamic field statistics
(PID.TID 0000.0001) // =======================================================
(PID.TID 0000.0001) // =======================================================
(PID.TID 0000.0001) // Begin OBCS MONITOR field statistics
(PID.TID 0000.0001) // =======================================================
(PID.TID 0000.0001) %MON obc_N_vVel_max               =  -6.5013860620103E-08
(PID.TID 0000.0001) %MON obc_N_vVel_min               =  -6.5013860620106E-08
(PID.TID 0000.0001) %MON obc_N_vVel_mean              =  -6.5013860620103E-08
(PID.TID 0000.0001) %MON obc_N_vVel_sd                =   2.1792068854128E-14
(PID.TID 0000.0001) %MON obc_N_vVel_Int               =  -4.2909148009268E+00
(PID.TID 0000.0001) // =======================================================
(PID.TID 0000.0001) // End OBCS MONITOR field statistics
(PID.TID 0000.0001) // =======================================================
 cg2d: Sum(rhs),rhsMax =   3.01097896348081E+00  4.53047876941018E+02
(PID.TID 0000.0001)      cg2d_init_res =   1.58740737888843E-06
(PID.TID 0000.0001)      cg2d_iters(min,last) =      -1      72
(PID.TID 0000.0001)      cg2d_last_res =   8.17314506418131E-12
(PID.TID 0000.0001) // =======================================================
(PID.TID 0000.0001) // Begin MONITOR dynamic field statistics
(PID.TID 0000.0001) // =======================================================
(PID.TID 0000.0001) %MON time_tsnumber                =                   744
(PID.TID 0000.0001) %MON time_secondsf                =   7.4400000000000E+04
(PID.TID 0000.0001) %MON dynstat_eta_max              =   5.7975318449936E+00
(PID.TID 0000.0001) %MON dynstat_eta_min              =  -1.4174835325505E+01
(PID.TID 0000.0001) %MON dynstat_eta_mean             =  -2.5261437535538E+00
(PID.TID 0000.0001) %MON dynstat_eta_sd               =   4.9416850211663E+00
(PID.TID 0000.0001) %MON dynstat_eta_del2             =   1.9058211915630E-01
(PID.TID 0000.0001) %MON dynstat_uvel_max             =   3.1718426682410E-03
(PID.TID 0000.0001) %MON dynstat_uvel_min             =  -1.0636991054022E-02
(PID.TID 0000.0001) %MON dynstat_uvel_mean            =  -1.1274475509827E-09
(PID.TID 0000.0001) %MON dynstat_uvel_sd              =   2.8245477498706E-04
(PID.TID 0000.0001) %MON dynstat_uvel_del2            =   4.8370730614876E-07
(PID.TID 0000.0001) %MON dynstat_vvel_max             =   8.9840091833220E-03
(PID.TID 0000.0001) %MON dynstat_vvel_min             =  -3.0146201204184E-03
(PID.TID 0000.0001) %MON dynstat_vvel_mean            =  -5.0776789512409E-08
(PID.TID 0000.0001) %MON dynstat_vvel_sd              =   1.6602628692626E-04
(PID.TID 0000.0001) %MON dynstat_vvel_del2            =   4.5529019889346E-07
(PID.TID 0000.0001) %MON dynstat_wvel_max             =   4.0957300384911E-04
(PID.TID 0000.0001) %MON dynstat_wvel_min             =  -3.9923647521117E-04
(PID.TID 0000.0001) %MON dynstat_wvel_mean            =   1.7731106721114E-10
(PID.TID 0000.0001) %MON dynstat_wvel_sd              =   1.0621724602990E-05
(PID.TID 0000.0001) %MON dynstat_wvel_del2            =   4.3852971080281E-08
(PID.TID 0000.0001) %MON dynstat_theta_max            =   1.2000000000000E+00
(PID.TID 0000.0001) %MON dynstat_theta_min            =  -1.0000000000000E+00
(PID.TID 0000.0001) %MON dynstat_theta_mean           =   5.6533127279042E-01
(PID.TID 0000.0001) %MON dynstat_theta_sd             =   8.4902287986526E-01
(PID.TID 0000.0001) %MON dynstat_theta_del2           =   1.2715828984977E-06
(PID.TID 0000.0001) %MON dynstat_salt_max             =   3.4700000000000E+01
(PID.TID 0000.0001) %MON dynstat_salt_min             =   3.4000000000000E+01
(PID.TID 0000.0001) %MON dynstat_salt_mean            =   3.4498046256590E+01
(PID.TID 0000.0001) %MON dynstat_salt_sd              =   2.7014367701159E-01
(PID.TID 0000.0001) %MON dynstat_salt_del2            =   4.9789461906669E-07
(PID.TID 0000.0001) %MON advcfl_uvel_max              =   1.0636991054022E-03
(PID.TID 0000.0001) %MON advcfl_vvel_max              =   8.9840091833220E-04
(PID.TID 0000.0001) %MON advcfl_wvel_max              =   2.0478650192455E-03
(PID.TID 0000.0001) %MON advcfl_W_hf_max              =   2.0478650192455E-03
(PID.TID 0000.0001) %MON pe_b_mean                    =  -6.8256967074910E-01
(PID.TID 0000.0001) %MON ke_max                       =   3.4749740632825E-05
(PID.TID 0000.0001) %MON ke_mean                      =   5.2922409588778E-08
(PID.TID 0000.0001) %MON ke_vol                       =   4.6182946884167E+12
(PID.TID 0000.0001) // =======================================================
(PID.TID 0000.0001) // End MONITOR dynamic field statistics
(PID.TID 0000.0001) // =======================================================
(PID.TID 0000.0001) // =======================================================
(PID.TID 0000.0001) // Begin OBCS MONITOR field statistics
(PID.TID 0000.0001) // =======================================================
(PID.TID 0000.0001) %MON obc_N_vVel_max               =  -6.5091683343705E-08
(PID.TID 0000.0001) %MON obc_N_vVel_min               =  -6.5091683343707E-08
(PID.TID 0000.0001) %MON obc_N_vVel_mean              =  -6.5091683343707E-08
(PID.TID 0000.0001) %MON obc_N_vVel_sd                =  -3.0450030941531E-28
(PID.TID 0000.0001) %MON obc_N_vVel_Int               =  -4.2960511006846E+00
(PID.TID 0000.0001) // =======================================================
(PID.TID 0000.0001) // End OBCS MONITOR field statistics
(PID.TID 0000.0001) // =======================================================
 cg2d: Sum(rhs),rhsMax =   3.01097546671065E+00  4.53047868259969E+02
(PID.TID 0000.0001)      cg2d_init_res =   1.59812986832454E-06
(PID.TID 0000.0001)      cg2d_iters(min,last) =      -1      72
(PID.TID 0000.0001)      cg2d_last_res =   8.19783139621948E-12
(PID.TID 0000.0001) // =======================================================
(PID.TID 0000.0001) // Begin MONITOR dynamic field statistics
(PID.TID 0000.0001) // =======================================================
(PID.TID 0000.0001) %MON time_tsnumber                =                   745
(PID.TID 0000.0001) %MON time_secondsf                =   7.4500000000000E+04
(PID.TID 0000.0001) %MON dynstat_eta_max              =   5.7975345936503E+00
(PID.TID 0000.0001) %MON dynstat_eta_min              =  -1.4174830666057E+01
(PID.TID 0000.0001) %MON dynstat_eta_mean             =  -2.5261407714376E+00
(PID.TID 0000.0001) %MON dynstat_eta_sd               =   4.9416841046434E+00
(PID.TID 0000.0001) %MON dynstat_eta_del2             =   1.9058212511935E-01
(PID.TID 0000.0001) %MON dynstat_uvel_max             =   3.1769255103136E-03
(PID.TID 0000.0001) %MON dynstat_uvel_min             =  -1.0667069546660E-02
(PID.TID 0000.0001) %MON dynstat_uvel_mean            =  -1.1291800941737E-09
(PID.TID 0000.0001) %MON dynstat_uvel_sd              =   2.8316190250587E-04
(PID.TID 0000.0001) %MON dynstat_uvel_del2            =   4.8476116062055E-07
(PID.TID 0000.0001) %MON dynstat_vvel_max             =   9.0026100469780E-03
(PID.TID 0000.0001) %MON dynstat_vvel_min             =  -3.0228599377242E-03
(PID.TID 0000.0001) %MON dynstat_vvel_mean            =  -5.0755295252196E-08
(PID.TID 0000.0001) %MON dynstat_vvel_sd              =   1.6641039409869E-04
(PID.TID 0000.0001) %MON dynstat_vvel_del2            =   4.5637739466780E-07
(PID.TID 0000.0001) %MON dynstat_wvel_max             =   4.1088384718922E-04
(PID.TID 0000.0001) %MON dynstat_wvel_min             =  -4.0060313925847E-04
(PID.TID 0000.0001) %MON dynstat_wvel_mean            =   1.7787270340523E-10
(PID.TID 0000.0001) %MON dynstat_wvel_sd              =   1.0713112708346E-05
(PID.TID 0000.0001) %MON dynstat_wvel_del2            =   4.4544729864664E-08
(PID.TID 0000.0001) %MON dynstat_theta_max            =   1.2000000000000E+00
(PID.TID 0000.0001) %MON dynstat_theta_min            =  -1.0000000000000E+00
(PID.TID 0000.0001) %MON dynstat_theta_mean           =   5.6533094768219E-01
(PID.TID 0000.0001) %MON dynstat_theta_sd             =   8.4902276141981E-01
(PID.TID 0000.0001) %MON dynstat_theta_del2           =   1.2738839842473E-06
(PID.TID 0000.0001) %MON dynstat_salt_max             =   3.4700000000000E+01
(PID.TID 0000.0001) %MON dynstat_salt_min             =   3.4000000000000E+01
(PID.TID 0000.0001) %MON dynstat_salt_mean            =   3.4498046127239E+01
(PID.TID 0000.0001) %MON dynstat_salt_sd              =   2.7014363460425E-01
(PID.TID 0000.0001) %MON dynstat_salt_del2            =   4.9885570185703E-07
(PID.TID 0000.0001) %MON advcfl_uvel_max              =   1.0667069546660E-03
(PID.TID 0000.0001) %MON advcfl_vvel_max              =   9.0026100469780E-04
(PID.TID 0000.0001) %MON advcfl_wvel_max              =   2.0544192359461E-03
(PID.TID 0000.0001) %MON advcfl_W_hf_max              =   2.0544192359461E-03
(PID.TID 0000.0001) %MON pe_b_mean                    =  -6.8256882688969E-01
(PID.TID 0000.0001) %MON ke_max                       =   3.4945739574962E-05
(PID.TID 0000.0001) %MON ke_mean                      =   5.3182475487052E-08
(PID.TID 0000.0001) %MON ke_vol                       =   4.6182947061039E+12
(PID.TID 0000.0001) // =======================================================
(PID.TID 0000.0001) // End MONITOR dynamic field statistics
(PID.TID 0000.0001) // =======================================================
(PID.TID 0000.0001) // =======================================================
(PID.TID 0000.0001) // Begin OBCS MONITOR field statistics
(PID.TID 0000.0001) // =======================================================
(PID.TID 0000.0001) %MON obc_N_vVel_max               =  -6.5122985746736E-08
(PID.TID 0000.0001) %MON obc_N_vVel_min               =  -6.5122985746738E-08
(PID.TID 0000.0001) %MON obc_N_vVel_mean              =  -6.5122985746736E-08
(PID.TID 0000.0001) %MON obc_N_vVel_sd                =   1.5612751830260E-14
(PID.TID 0000.0001) %MON obc_N_vVel_Int               =  -4.2981170592846E+00
(PID.TID 0000.0001) // =======================================================
(PID.TID 0000.0001) // End OBCS MONITOR field statistics
(PID.TID 0000.0001) // =======================================================
 cg2d: Sum(rhs),rhsMax =   3.01097196457003E+00  4.53047859589867E+02
(PID.TID 0000.0001)      cg2d_init_res =   1.60773800382272E-06
(PID.TID 0000.0001)      cg2d_iters(min,last) =      -1      72
(PID.TID 0000.0001)      cg2d_last_res =   8.22386259182309E-12
(PID.TID 0000.0001) // =======================================================
(PID.TID 0000.0001) // Begin MONITOR dynamic field statistics
(PID.TID 0000.0001) // =======================================================
(PID.TID 0000.0001) %MON time_tsnumber                =                   746
(PID.TID 0000.0001) %MON time_secondsf                =   7.4600000000000E+04
(PID.TID 0000.0001) %MON dynstat_eta_max              =   5.7975373452580E+00
(PID.TID 0000.0001) %MON dynstat_eta_min              =  -1.4174825999026E+01
(PID.TID 0000.0001) %MON dynstat_eta_mean             =  -2.5261377848769E+00
(PID.TID 0000.0001) %MON dynstat_eta_sd               =   4.9416831869462E+00
(PID.TID 0000.0001) %MON dynstat_eta_del2             =   1.9058213109890E-01
(PID.TID 0000.0001) %MON dynstat_uvel_max             =   3.1820115260359E-03
(PID.TID 0000.0001) %MON dynstat_uvel_min             =  -1.0697215420381E-02
(PID.TID 0000.0001) %MON dynstat_uvel_mean            =  -1.1309877831728E-09
(PID.TID 0000.0001) %MON dynstat_uvel_sd              =   2.8387190153115E-04
(PID.TID 0000.0001) %MON dynstat_uvel_del2            =   4.8581792238207E-07
(PID.TID 0000.0001) %MON dynstat_vvel_max             =   9.0212376908068E-03
(PID.TID 0000.0001) %MON dynstat_vvel_min             =  -3.0311129372258E-03
(PID.TID 0000.0001) %MON dynstat_vvel_mean            =  -5.0679784170664E-08
(PID.TID 0000.0001) %MON dynstat_vvel_sd              =   1.6679215343050E-04
(PID.TID 0000.0001) %MON dynstat_vvel_del2            =   4.5742559652888E-07
(PID.TID 0000.0001) %MON dynstat_wvel_max             =   4.1219766222787E-04
(PID.TID 0000.0001) %MON dynstat_wvel_min             =  -4.0197463749424E-04
(PID.TID 0000.0001) %MON dynstat_wvel_mean            =   1.7844450268182E-10
(PID.TID 0000.0001) %MON dynstat_wvel_sd              =   1.0785958371642E-05
(PID.TID 0000.0001) %MON dynstat_wvel_del2            =   4.5104111274467E-08
(PID.TID 0000.0001) %MON dynstat_theta_max            =   1.2000000000000E+00
(PID.TID 0000.0001) %MON dynstat_theta_min            =  -1.0000000000000E+00
(PID.TID 0000.0001) %MON dynstat_theta_mean           =   5.6533062202230E-01
(PID.TID 0000.0001) %MON dynstat_theta_sd             =   8.4902264269919E-01
(PID.TID 0000.0001) %MON dynstat_theta_del2           =   1.2762502499289E-06
(PID.TID 0000.0001) %MON dynstat_salt_max             =   3.4700000000000E+01
(PID.TID 0000.0001) %MON dynstat_salt_min             =   3.4000000000000E+01
(PID.TID 0000.0001) %MON dynstat_salt_mean            =   3.4498045997672E+01
(PID.TID 0000.0001) %MON dynstat_salt_sd              =   2.7014359208698E-01
(PID.TID 0000.0001) %MON dynstat_salt_del2            =   4.9983451003593E-07
(PID.TID 0000.0001) %MON advcfl_uvel_max              =   1.0697215420381E-03
(PID.TID 0000.0001) %MON advcfl_vvel_max              =   9.0212376908068E-04
(PID.TID 0000.0001) %MON advcfl_wvel_max              =   2.0609883111394E-03
(PID.TID 0000.0001) %MON advcfl_W_hf_max              =   2.0609883111394E-03
(PID.TID 0000.0001) %MON pe_b_mean                    =  -6.8256798164545E-01
(PID.TID 0000.0001) %MON ke_max                       =   3.5142735329711E-05
(PID.TID 0000.0001) %MON ke_mean                      =   5.3443587768099E-08
(PID.TID 0000.0001) %MON ke_vol                       =   4.6182947238177E+12
(PID.TID 0000.0001) // =======================================================
(PID.TID 0000.0001) // End MONITOR dynamic field statistics
(PID.TID 0000.0001) // =======================================================
(PID.TID 0000.0001) // =======================================================
(PID.TID 0000.0001) // Begin OBCS MONITOR field statistics
(PID.TID 0000.0001) // =======================================================
(PID.TID 0000.0001) %MON obc_N_vVel_max               =  -6.5105704587322E-08
(PID.TID 0000.0001) %MON obc_N_vVel_min               =  -6.5105704587322E-08
(PID.TID 0000.0001) %MON obc_N_vVel_mean              =  -6.5105704587322E-08
(PID.TID 0000.0001) %MON obc_N_vVel_sd                =   2.3498992183809E-15
(PID.TID 0000.0001) %MON obc_N_vVel_Int               =  -4.2969765027632E+00
(PID.TID 0000.0001) // =======================================================
(PID.TID 0000.0001) // End OBCS MONITOR field statistics
(PID.TID 0000.0001) // =======================================================
 cg2d: Sum(rhs),rhsMax =   3.01096845710078E+00  4.53047850930704E+02
(PID.TID 0000.0001)      cg2d_init_res =   1.61565605885833E-06
(PID.TID 0000.0001)      cg2d_iters(min,last) =      -1      72
(PID.TID 0000.0001)      cg2d_last_res =   8.25140203020877E-12
(PID.TID 0000.0001) // =======================================================
(PID.TID 0000.0001) // Begin MONITOR dynamic field statistics
(PID.TID 0000.0001) // =======================================================
(PID.TID 0000.0001) %MON time_tsnumber                =                   747
(PID.TID 0000.0001) %MON time_secondsf                =   7.4700000000000E+04
(PID.TID 0000.0001) %MON dynstat_eta_max              =   5.7975400997685E+00
(PID.TID 0000.0001) %MON dynstat_eta_min              =  -1.4174821324336E+01
(PID.TID 0000.0001) %MON dynstat_eta_mean             =  -2.5261347939068E+00
(PID.TID 0000.0001) %MON dynstat_eta_sd               =   4.9416822680870E+00
(PID.TID 0000.0001) %MON dynstat_eta_del2             =   1.9058213709499E-01
(PID.TID 0000.0001) %MON dynstat_uvel_max             =   3.1871006648618E-03
(PID.TID 0000.0001) %MON dynstat_uvel_min             =  -1.0727428741284E-02
(PID.TID 0000.0001) %MON dynstat_uvel_mean            =  -1.1328087673900E-09
(PID.TID 0000.0001) %MON dynstat_uvel_sd              =   2.8458478182810E-04
(PID.TID 0000.0001) %MON dynstat_uvel_del2            =   4.8687763040994E-07
(PID.TID 0000.0001) %MON dynstat_vvel_max             =   9.0398921055272E-03
(PID.TID 0000.0001) %MON dynstat_vvel_min             =  -3.0393791569097E-03
(PID.TID 0000.0001) %MON dynstat_vvel_mean            =  -5.0550675152566E-08
(PID.TID 0000.0001) %MON dynstat_vvel_sd              =   1.6717038000242E-04
(PID.TID 0000.0001) %MON dynstat_vvel_del2            =   4.5842270235415E-07
(PID.TID 0000.0001) %MON dynstat_wvel_max             =   4.1351444622973E-04
(PID.TID 0000.0001) %MON dynstat_wvel_min             =  -4.0335097759042E-04
(PID.TID 0000.0001) %MON dynstat_wvel_mean            =   1.7901493777365E-10
(PID.TID 0000.0001) %MON dynstat_wvel_sd              =   1.0835073278198E-05
(PID.TID 0000.0001) %MON dynstat_wvel_del2            =   4.5490883139304E-08
(PID.TID 0000.0001) %MON dynstat_theta_max            =   1.2000000000000E+00
(PID.TID 0000.0001) %MON dynstat_theta_min            =  -1.0000000000000E+00
(PID.TID 0000.0001) %MON dynstat_theta_mean           =   5.6533029580110E-01
(PID.TID 0000.0001) %MON dynstat_theta_sd             =   8.4902252371317E-01
(PID.TID 0000.0001) %MON dynstat_theta_del2           =   1.2786934556910E-06
(PID.TID 0000.0001) %MON dynstat_salt_max             =   3.4700000000000E+01
(PID.TID 0000.0001) %MON dynstat_salt_min             =   3.4000000000000E+01
(PID.TID 0000.0001) %MON dynstat_salt_mean            =   3.4498045867885E+01
(PID.TID 0000.0001) %MON dynstat_salt_sd              =   2.7014354946288E-01
(PID.TID 0000.0001) %MON dynstat_salt_del2            =   5.0083408009147E-07
(PID.TID 0000.0001) %MON advcfl_uvel_max              =   1.0727428741284E-03
(PID.TID 0000.0001) %MON advcfl_vvel_max              =   9.0398921055272E-04
(PID.TID 0000.0001) %MON advcfl_wvel_max              =   2.0675722311487E-03
(PID.TID 0000.0001) %MON advcfl_W_hf_max              =   2.0675722311487E-03
(PID.TID 0000.0001) %MON pe_b_mean                    =  -6.8256713502194E-01
(PID.TID 0000.0001) %MON ke_max                       =   3.5340731967326E-05
(PID.TID 0000.0001) %MON ke_mean                      =   5.3705554393698E-08
(PID.TID 0000.0001) %MON ke_vol                       =   4.6182947415578E+12
(PID.TID 0000.0001) // =======================================================
(PID.TID 0000.0001) // End MONITOR dynamic field statistics
(PID.TID 0000.0001) // =======================================================
(PID.TID 0000.0001) // =======================================================
(PID.TID 0000.0001) // Begin OBCS MONITOR field statistics
(PID.TID 0000.0001) // =======================================================
(PID.TID 0000.0001) %MON obc_N_vVel_max               =  -6.5039233987426E-08
(PID.TID 0000.0001) %MON obc_N_vVel_min               =  -6.5039233987427E-08
(PID.TID 0000.0001) %MON obc_N_vVel_mean              =  -6.5039233987427E-08
(PID.TID 0000.0001) %MON obc_N_vVel_sd                =  -7.7308368711659E-29
(PID.TID 0000.0001) %MON obc_N_vVel_Int               =  -4.2925894431702E+00
(PID.TID 0000.0001) // =======================================================
(PID.TID 0000.0001) // End OBCS MONITOR field statistics
(PID.TID 0000.0001) // =======================================================
 cg2d: Sum(rhs),rhsMax =   3.01096494434512E+00  4.53047842282386E+02
(PID.TID 0000.0001)      cg2d_init_res =   1.62146135222494E-06
(PID.TID 0000.0001)      cg2d_iters(min,last) =      -1      72
(PID.TID 0000.0001)      cg2d_last_res =   8.28036322724137E-12
(PID.TID 0000.0001) // =======================================================
(PID.TID 0000.0001) // Begin MONITOR dynamic field statistics
(PID.TID 0000.0001) // =======================================================
(PID.TID 0000.0001) %MON time_tsnumber                =                   748
(PID.TID 0000.0001) %MON time_secondsf                =   7.4800000000000E+04
(PID.TID 0000.0001) %MON dynstat_eta_max              =   5.7975428571025E+00
(PID.TID 0000.0001) %MON dynstat_eta_min              =  -1.4174816641914E+01
(PID.TID 0000.0001) %MON dynstat_eta_mean             =  -2.5261317985620E+00
(PID.TID 0000.0001) %MON dynstat_eta_sd               =   4.9416813480761E+00
(PID.TID 0000.0001) %MON dynstat_eta_del2             =   1.9058214310764E-01
(PID.TID 0000.0001) %MON dynstat_uvel_max             =   3.1921928759395E-03
(PID.TID 0000.0001) %MON dynstat_uvel_min             =  -1.0757709574889E-02
(PID.TID 0000.0001) %MON dynstat_uvel_mean            =  -1.1345820517944E-09
(PID.TID 0000.0001) %MON dynstat_uvel_sd              =   2.8530055305071E-04
(PID.TID 0000.0001) %MON dynstat_uvel_del2            =   4.8794031844310E-07
(PID.TID 0000.0001) %MON dynstat_vvel_max             =   9.0585732810002E-03
(PID.TID 0000.0001) %MON dynstat_vvel_min             =  -3.0476586351087E-03
(PID.TID 0000.0001) %MON dynstat_vvel_mean            =  -5.0370023428821E-08
(PID.TID 0000.0001) %MON dynstat_vvel_sd              =   1.6754433595267E-04
(PID.TID 0000.0001) %MON dynstat_vvel_del2            =   4.5936138835551E-07
(PID.TID 0000.0001) %MON dynstat_wvel_max             =   4.1483419366321E-04
(PID.TID 0000.0001) %MON dynstat_wvel_min             =  -4.0473216710136E-04
(PID.TID 0000.0001) %MON dynstat_wvel_mean            =   1.7957283207653E-10
(PID.TID 0000.0001) %MON dynstat_wvel_sd              =   1.0857289886796E-05
(PID.TID 0000.0001) %MON dynstat_wvel_del2            =   4.5679386851832E-08
(PID.TID 0000.0001) %MON dynstat_theta_max            =   1.2000000000000E+00
(PID.TID 0000.0001) %MON dynstat_theta_min            =  -1.0000000000000E+00
(PID.TID 0000.0001) %MON dynstat_theta_mean           =   5.6532996901062E-01
(PID.TID 0000.0001) %MON dynstat_theta_sd             =   8.4902240447212E-01
(PID.TID 0000.0001) %MON dynstat_theta_del2           =   1.2812194907838E-06
(PID.TID 0000.0001) %MON dynstat_salt_max             =   3.4700000000000E+01
(PID.TID 0000.0001) %MON dynstat_salt_min             =   3.4000000000000E+01
(PID.TID 0000.0001) %MON dynstat_salt_mean            =   3.4498045737876E+01
(PID.TID 0000.0001) %MON dynstat_salt_sd              =   2.7014350673523E-01
(PID.TID 0000.0001) %MON dynstat_salt_del2            =   5.0185593529612E-07
(PID.TID 0000.0001) %MON advcfl_uvel_max              =   1.0757709574889E-03
(PID.TID 0000.0001) %MON advcfl_vvel_max              =   9.0585732810002E-04
(PID.TID 0000.0001) %MON advcfl_wvel_max              =   2.0741709683160E-03
(PID.TID 0000.0001) %MON advcfl_W_hf_max              =   2.0741709683160E-03
(PID.TID 0000.0001) %MON pe_b_mean                    =  -6.8256628702434E-01
(PID.TID 0000.0001) %MON ke_max                       =   3.5539733565621E-05
(PID.TID 0000.0001) %MON ke_mean                      =   5.3968256483490E-08
(PID.TID 0000.0001) %MON ke_vol                       =   4.6182947593242E+12
(PID.TID 0000.0001) // =======================================================
(PID.TID 0000.0001) // End MONITOR dynamic field statistics
(PID.TID 0000.0001) // =======================================================
(PID.TID 0000.0001) // =======================================================
(PID.TID 0000.0001) // Begin OBCS MONITOR field statistics
(PID.TID 0000.0001) // =======================================================
(PID.TID 0000.0001) %MON obc_N_vVel_max               =  -6.4924484646144E-08
(PID.TID 0000.0001) %MON obc_N_vVel_min               =  -6.4924484646144E-08
(PID.TID 0000.0001) %MON obc_N_vVel_mean              =  -6.4924484646144E-08
(PID.TID 0000.0001) %MON obc_N_vVel_sd                =  -5.4431402460250E-29
(PID.TID 0000.0001) %MON obc_N_vVel_Int               =  -4.2850159866455E+00
(PID.TID 0000.0001) // =======================================================
(PID.TID 0000.0001) // End OBCS MONITOR field statistics
(PID.TID 0000.0001) // =======================================================
 cg2d: Sum(rhs),rhsMax =   3.01096142634208E+00  4.53047833644753E+02
(PID.TID 0000.0001)      cg2d_init_res =   1.62491565604374E-06
(PID.TID 0000.0001)      cg2d_iters(min,last) =      -1      72
(PID.TID 0000.0001)      cg2d_last_res =   8.31060073834467E-12
(PID.TID 0000.0001) // =======================================================
(PID.TID 0000.0001) // Begin MONITOR dynamic field statistics
(PID.TID 0000.0001) // =======================================================
(PID.TID 0000.0001) %MON time_tsnumber                =                   749
(PID.TID 0000.0001) %MON time_secondsf                =   7.4900000000000E+04
(PID.TID 0000.0001) %MON dynstat_eta_max              =   5.7975456171976E+00
(PID.TID 0000.0001) %MON dynstat_eta_min              =  -1.4174811951683E+01
(PID.TID 0000.0001) %MON dynstat_eta_mean             =  -2.5261287988744E+00
(PID.TID 0000.0001) %MON dynstat_eta_sd               =   4.9416804269225E+00
(PID.TID 0000.0001) %MON dynstat_eta_del2             =   1.9058214913692E-01
(PID.TID 0000.0001) %MON dynstat_uvel_max             =   3.1972881081597E-03
(PID.TID 0000.0001) %MON dynstat_uvel_min             =  -1.0788057985927E-02
(PID.TID 0000.0001) %MON dynstat_uvel_mean            =  -1.1362476956207E-09
(PID.TID 0000.0001) %MON dynstat_uvel_sd              =   2.8601922460361E-04
(PID.TID 0000.0001) %MON dynstat_uvel_del2            =   4.8900601420557E-07
(PID.TID 0000.0001) %MON dynstat_vvel_max             =   9.0772812062110E-03
(PID.TID 0000.0001) %MON dynstat_vvel_min             =  -3.0559514104409E-03
(PID.TID 0000.0001) %MON dynstat_vvel_mean            =  -5.0141433413019E-08
(PID.TID 0000.0001) %MON dynstat_vvel_sd              =   1.6791378413176E-04
(PID.TID 0000.0001) %MON dynstat_vvel_del2            =   4.6023964685367E-07
(PID.TID 0000.0001) %MON dynstat_wvel_max             =   4.1615690443725E-04
(PID.TID 0000.0001) %MON dynstat_wvel_min             =  -4.0611821358619E-04
(PID.TID 0000.0001) %MON dynstat_wvel_mean            =   1.8010736116900E-10
(PID.TID 0000.0001) %MON dynstat_wvel_sd              =   1.0851612900075E-05
(PID.TID 0000.0001) %MON dynstat_wvel_del2            =   4.5659350213531E-08
(PID.TID 0000.0001) %MON dynstat_theta_max            =   1.2000000000000E+00
(PID.TID 0000.0001) %MON dynstat_theta_min            =  -1.0000000000000E+00
(PID.TID 0000.0001) %MON dynstat_theta_mean           =   5.6532964164455E-01
(PID.TID 0000.0001) %MON dynstat_theta_sd             =   8.4902228498610E-01
(PID.TID 0000.0001) %MON dynstat_theta_del2           =   1.2838279060855E-06
(PID.TID 0000.0001) %MON dynstat_salt_max             =   3.4700000000000E+01
(PID.TID 0000.0001) %MON dynstat_salt_min             =   3.4000000000000E+01
(PID.TID 0000.0001) %MON dynstat_salt_mean            =   3.4498045607643E+01
(PID.TID 0000.0001) %MON dynstat_salt_sd              =   2.7014346390708E-01
(PID.TID 0000.0001) %MON dynstat_salt_del2            =   5.0289995666915E-07
(PID.TID 0000.0001) %MON advcfl_uvel_max              =   1.0788057985927E-03
(PID.TID 0000.0001) %MON advcfl_vvel_max              =   9.0772812062110E-04
(PID.TID 0000.0001) %MON advcfl_wvel_max              =   2.0807845221863E-03
(PID.TID 0000.0001) %MON advcfl_W_hf_max              =   2.0807845221863E-03
(PID.TID 0000.0001) %MON pe_b_mean                    =  -6.8256543765689E-01
(PID.TID 0000.0001) %MON ke_max                       =   3.5739744208778E-05
(PID.TID 0000.0001) %MON ke_mean                      =   5.4231658157767E-08
(PID.TID 0000.0001) %MON ke_vol                       =   4.6182947771165E+12
(PID.TID 0000.0001) // =======================================================
(PID.TID 0000.0001) // End MONITOR dynamic field statistics
(PID.TID 0000.0001) // =======================================================
(PID.TID 0000.0001) // =======================================================
(PID.TID 0000.0001) // Begin OBCS MONITOR field statistics
(PID.TID 0000.0001) // =======================================================
(PID.TID 0000.0001) %MON obc_N_vVel_max               =  -6.4763819021555E-08
(PID.TID 0000.0001) %MON obc_N_vVel_min               =  -6.4763819021557E-08
(PID.TID 0000.0001) %MON obc_N_vVel_mean              =  -6.4763819021555E-08
(PID.TID 0000.0001) %MON obc_N_vVel_sd                =   1.7336551124408E-14
(PID.TID 0000.0001) %MON obc_N_vVel_Int               =  -4.2744120554226E+00
(PID.TID 0000.0001) // =======================================================
(PID.TID 0000.0001) // End OBCS MONITOR field statistics
(PID.TID 0000.0001) // =======================================================
 cg2d: Sum(rhs),rhsMax =   3.01095790312526E+00  4.53047825017578E+02
(PID.TID 0000.0001)      cg2d_init_res =   1.62598055441141E-06
(PID.TID 0000.0001)      cg2d_iters(min,last) =      -1      72
(PID.TID 0000.0001)      cg2d_last_res =   8.34179733822026E-12
(PID.TID 0000.0001) // =======================================================
(PID.TID 0000.0001) // Begin MONITOR dynamic field statistics
(PID.TID 0000.0001) // =======================================================
(PID.TID 0000.0001) %MON time_tsnumber                =                   750
(PID.TID 0000.0001) %MON time_secondsf                =   7.5000000000000E+04
(PID.TID 0000.0001) %MON dynstat_eta_max              =   5.7975483799794E+00
(PID.TID 0000.0001) %MON dynstat_eta_min              =  -1.4174807253543E+01
(PID.TID 0000.0001) %MON dynstat_eta_mean             =  -2.5261257948711E+00
(PID.TID 0000.0001) %MON dynstat_eta_sd               =   4.9416795046314E+00
(PID.TID 0000.0001) %MON dynstat_eta_del2             =   1.9058215518282E-01
(PID.TID 0000.0001) %MON dynstat_uvel_max             =   3.2023863103294E-03
(PID.TID 0000.0001) %MON dynstat_uvel_min             =  -1.0818474038413E-02
(PID.TID 0000.0001) %MON dynstat_uvel_mean            =  -1.1377493012534E-09
(PID.TID 0000.0001) %MON dynstat_uvel_sd              =   2.8674080553302E-04
(PID.TID 0000.0001) %MON dynstat_uvel_del2            =   4.9007473924970E-07
(PID.TID 0000.0001) %MON dynstat_vvel_max             =   9.0960158690636E-03
(PID.TID 0000.0001) %MON dynstat_vvel_min             =  -3.0642575218769E-03
(PID.TID 0000.0001) %MON dynstat_vvel_mean            =  -4.9869927784825E-08
(PID.TID 0000.0001) %MON dynstat_vvel_sd              =   1.6827899791883E-04
(PID.TID 0000.0001) %MON dynstat_vvel_del2            =   4.6106086451353E-07
(PID.TID 0000.0001) %MON dynstat_wvel_max             =   4.1748258024106E-04
(PID.TID 0000.0001) %MON dynstat_wvel_min             =  -4.0750912451706E-04
(PID.TID 0000.0001) %MON dynstat_wvel_mean            =   1.8060860070523E-10
(PID.TID 0000.0001) %MON dynstat_wvel_sd              =   1.0819236955627E-05
(PID.TID 0000.0001) %MON dynstat_wvel_del2            =   4.5436030858458E-08
(PID.TID 0000.0001) %MON dynstat_theta_max            =   1.2000000000000E+00
(PID.TID 0000.0001) %MON dynstat_theta_min            =  -1.0000000000000E+00
(PID.TID 0000.0001) %MON dynstat_theta_mean           =   5.6532931369824E-01
(PID.TID 0000.0001) %MON dynstat_theta_sd             =   8.4902216526153E-01
(PID.TID 0000.0001) %MON dynstat_theta_del2           =   1.2865119453856E-06
(PID.TID 0000.0001) %MON dynstat_salt_max             =   3.4700000000000E+01
(PID.TID 0000.0001) %MON dynstat_salt_min             =   3.4000000000000E+01
(PID.TID 0000.0001) %MON dynstat_salt_mean            =   3.4498045477184E+01
(PID.TID 0000.0001) %MON dynstat_salt_sd              =   2.7014342098046E-01
(PID.TID 0000.0001) %MON dynstat_salt_del2            =   5.0396440257064E-07
(PID.TID 0000.0001) %MON advcfl_uvel_max              =   1.0818474038413E-03
(PID.TID 0000.0001) %MON advcfl_vvel_max              =   9.0960158690636E-04
(PID.TID 0000.0001) %MON advcfl_wvel_max              =   2.0874129012053E-03
(PID.TID 0000.0001) %MON advcfl_W_hf_max              =   2.0874129012053E-03
(PID.TID 0000.0001) %MON pe_b_mean                    =  -6.8256458692248E-01
(PID.TID 0000.0001) %MON ke_max                       =   3.5940767987580E-05
(PID.TID 0000.0001) %MON ke_mean                      =   5.4495809103917E-08
(PID.TID 0000.0001) %MON ke_vol                       =   4.6182947949347E+12
(PID.TID 0000.0001) // =======================================================
(PID.TID 0000.0001) // End MONITOR dynamic field statistics
(PID.TID 0000.0001) // =======================================================
(PID.TID 0000.0001) // =======================================================
(PID.TID 0000.0001) // Begin OBCS MONITOR field statistics
(PID.TID 0000.0001) // =======================================================
(PID.TID 0000.0001) %MON obc_N_vVel_max               =  -6.4560983236197E-08
(PID.TID 0000.0001) %MON obc_N_vVel_min               =  -6.4560983236199E-08
(PID.TID 0000.0001) %MON obc_N_vVel_mean              =  -6.4560983236197E-08
(PID.TID 0000.0001) %MON obc_N_vVel_sd                =   8.7475429582505E-15
(PID.TID 0000.0001) %MON obc_N_vVel_Int               =  -4.2610248935890E+00
(PID.TID 0000.0001) // =======================================================
(PID.TID 0000.0001) // End OBCS MONITOR field statistics
(PID.TID 0000.0001) // =======================================================
 cg2d: Sum(rhs),rhsMax =   3.01095437472235E+00  4.53047816400595E+02
(PID.TID 0000.0001)      cg2d_init_res =   1.62481723948635E-06
(PID.TID 0000.0001)      cg2d_iters(min,last) =      -1      72
(PID.TID 0000.0001)      cg2d_last_res =   8.37374508565544E-12
(PID.TID 0000.0001) // =======================================================
(PID.TID 0000.0001) // Begin MONITOR dynamic field statistics
(PID.TID 0000.0001) // =======================================================
(PID.TID 0000.0001) %MON time_tsnumber                =                   751
(PID.TID 0000.0001) %MON time_secondsf                =   7.5100000000000E+04
(PID.TID 0000.0001) %MON dynstat_eta_max              =   5.7975511453834E+00
(PID.TID 0000.0001) %MON dynstat_eta_min              =  -1.4174802547397E+01
(PID.TID 0000.0001) %MON dynstat_eta_mean             =  -2.5261227865737E+00
(PID.TID 0000.0001) %MON dynstat_eta_sd               =   4.9416785812068E+00
(PID.TID 0000.0001) %MON dynstat_eta_del2             =   1.9058216124547E-01
(PID.TID 0000.0001) %MON dynstat_uvel_max             =   3.2074874310730E-03
(PID.TID 0000.0001) %MON dynstat_uvel_min             =  -1.0848957795691E-02
(PID.TID 0000.0001) %MON dynstat_uvel_mean            =  -1.1390365701958E-09
(PID.TID 0000.0001) %MON dynstat_uvel_sd              =   2.8746530445640E-04
(PID.TID 0000.0001) %MON dynstat_uvel_del2            =   4.9114650935180E-07
(PID.TID 0000.0001) %MON dynstat_vvel_max             =   9.1147772564615E-03
(PID.TID 0000.0001) %MON dynstat_vvel_min             =  -3.0725770086422E-03
(PID.TID 0000.0001) %MON dynstat_vvel_mean            =  -4.9561778043214E-08
(PID.TID 0000.0001) %MON dynstat_vvel_sd              =   1.6864072723226E-04
(PID.TID 0000.0001) %MON dynstat_vvel_del2            =   4.6183344195660E-07
(PID.TID 0000.0001) %MON dynstat_wvel_max             =   4.1881122369980E-04
(PID.TID 0000.0001) %MON dynstat_wvel_min             =  -4.0890490731401E-04
(PID.TID 0000.0001) %MON dynstat_wvel_mean            =   1.8106792599940E-10
(PID.TID 0000.0001) %MON dynstat_wvel_sd              =   1.0763437315374E-05
(PID.TID 0000.0001) %MON dynstat_wvel_del2            =   4.5029778100645E-08
(PID.TID 0000.0001) %MON dynstat_theta_max            =   1.2000000000000E+00
(PID.TID 0000.0001) %MON dynstat_theta_min            =  -1.0000000000000E+00
(PID.TID 0000.0001) %MON dynstat_theta_mean           =   5.6532898516889E-01
(PID.TID 0000.0001) %MON dynstat_theta_sd             =   8.4902204530059E-01
(PID.TID 0000.0001) %MON dynstat_theta_del2           =   1.2892591922971E-06
(PID.TID 0000.0001) %MON dynstat_salt_max             =   3.4700000000000E+01
(PID.TID 0000.0001) %MON dynstat_salt_min             =   3.4000000000000E+01
(PID.TID 0000.0001) %MON dynstat_salt_mean            =   3.4498045346497E+01
(PID.TID 0000.0001) %MON dynstat_salt_sd              =   2.7014337795597E-01
(PID.TID 0000.0001) %MON dynstat_salt_del2            =   5.0504606570931E-07
(PID.TID 0000.0001) %MON advcfl_uvel_max              =   1.0848957795691E-03
(PID.TID 0000.0001) %MON advcfl_vvel_max              =   9.1147772564615E-04
(PID.TID 0000.0001) %MON advcfl_wvel_max              =   2.0940561184990E-03
(PID.TID 0000.0001) %MON advcfl_W_hf_max              =   2.0940561184990E-03
(PID.TID 0000.0001) %MON pe_b_mean                    =  -6.8256373482271E-01
(PID.TID 0000.0001) %MON ke_max                       =   3.6142808999891E-05
(PID.TID 0000.0001) %MON ke_mean                      =   5.4760839755696E-08
(PID.TID 0000.0001) %MON ke_vol                       =   4.6182948127785E+12
(PID.TID 0000.0001) // =======================================================
(PID.TID 0000.0001) // End MONITOR dynamic field statistics
(PID.TID 0000.0001) // =======================================================
(PID.TID 0000.0001) // =======================================================
(PID.TID 0000.0001) // Begin OBCS MONITOR field statistics
(PID.TID 0000.0001) // =======================================================
(PID.TID 0000.0001) %MON obc_N_vVel_max               =  -6.4320979326840E-08
(PID.TID 0000.0001) %MON obc_N_vVel_min               =  -6.4320979326841E-08
(PID.TID 0000.0001) %MON obc_N_vVel_mean              =  -6.4320979326840E-08
(PID.TID 0000.0001) %MON obc_N_vVel_sd                =   1.1546319456102E-14
(PID.TID 0000.0001) %MON obc_N_vVel_Int               =  -4.2451846355714E+00
(PID.TID 0000.0001) // =======================================================
(PID.TID 0000.0001) // End OBCS MONITOR field statistics
(PID.TID 0000.0001) // =======================================================
 cg2d: Sum(rhs),rhsMax =   3.01095084115469E+00  4.53047807793513E+02
(PID.TID 0000.0001)      cg2d_init_res =   1.62177290034968E-06
(PID.TID 0000.0001)      cg2d_iters(min,last) =      -1      72
(PID.TID 0000.0001)      cg2d_last_res =   8.40631648870709E-12
(PID.TID 0000.0001) // =======================================================
(PID.TID 0000.0001) // Begin MONITOR dynamic field statistics
(PID.TID 0000.0001) // =======================================================
(PID.TID 0000.0001) %MON time_tsnumber                =                   752
(PID.TID 0000.0001) %MON time_secondsf                =   7.5200000000000E+04
(PID.TID 0000.0001) %MON dynstat_eta_max              =   5.7975539133460E+00
(PID.TID 0000.0001) %MON dynstat_eta_min              =  -1.4174797833116E+01
(PID.TID 0000.0001) %MON dynstat_eta_mean             =  -2.5261197739985E+00
(PID.TID 0000.0001) %MON dynstat_eta_sd               =   4.9416776566500E+00
(PID.TID 0000.0001) %MON dynstat_eta_del2             =   1.9058216732499E-01
(PID.TID 0000.0001) %MON dynstat_uvel_max             =   3.2125914189027E-03
(PID.TID 0000.0001) %MON dynstat_uvel_min             =  -1.0879509320437E-02
(PID.TID 0000.0001) %MON dynstat_uvel_mean            =  -1.1400660336312E-09
(PID.TID 0000.0001) %MON dynstat_uvel_sd              =   2.8819272953065E-04
(PID.TID 0000.0001) %MON dynstat_uvel_del2            =   4.9222133545073E-07
(PID.TID 0000.0001) %MON dynstat_vvel_max             =   9.1335653545230E-03
(PID.TID 0000.0001) %MON dynstat_vvel_min             =  -3.0809099101914E-03
(PID.TID 0000.0001) %MON dynstat_vvel_mean            =  -4.9224294911810E-08
(PID.TID 0000.0001) %MON dynstat_vvel_sd              =   1.6900012450380E-04
(PID.TID 0000.0001) %MON dynstat_vvel_del2            =   4.6256999272864E-07
(PID.TID 0000.0001) %MON dynstat_wvel_max             =   4.2014283804362E-04
(PID.TID 0000.0001) %MON dynstat_wvel_min             =  -4.1030556939131E-04
(PID.TID 0000.0001) %MON dynstat_wvel_mean            =   1.8147810013526E-10
(PID.TID 0000.0001) %MON dynstat_wvel_sd              =   1.0689335098044E-05
(PID.TID 0000.0001) %MON dynstat_wvel_del2            =   4.4474988935883E-08
(PID.TID 0000.0001) %MON dynstat_theta_max            =   1.2000000000000E+00
(PID.TID 0000.0001) %MON dynstat_theta_min            =  -1.0000000000000E+00
(PID.TID 0000.0001) %MON dynstat_theta_mean           =   5.6532865605561E-01
(PID.TID 0000.0001) %MON dynstat_theta_sd             =   8.4902192510407E-01
(PID.TID 0000.0001) %MON dynstat_theta_del2           =   1.2920526252511E-06
(PID.TID 0000.0001) %MON dynstat_salt_max             =   3.4700000000000E+01
(PID.TID 0000.0001) %MON dynstat_salt_min             =   3.4000000000000E+01
(PID.TID 0000.0001) %MON dynstat_salt_mean            =   3.4498045215584E+01
(PID.TID 0000.0001) %MON dynstat_salt_sd              =   2.7014333483379E-01
(PID.TID 0000.0001) %MON dynstat_salt_del2            =   5.0614055074764E-07
(PID.TID 0000.0001) %MON advcfl_uvel_max              =   1.0879509320437E-03
(PID.TID 0000.0001) %MON advcfl_vvel_max              =   9.1335653545230E-04
(PID.TID 0000.0001) %MON advcfl_wvel_max              =   2.1007141902181E-03
(PID.TID 0000.0001) %MON advcfl_W_hf_max              =   2.1007141902181E-03
(PID.TID 0000.0001) %MON pe_b_mean                    =  -6.8256288135794E-01
(PID.TID 0000.0001) %MON ke_max                       =   3.6345871350715E-05
(PID.TID 0000.0001) %MON ke_mean                      =   5.5026949615864E-08
(PID.TID 0000.0001) %MON ke_vol                       =   4.6182948306478E+12
(PID.TID 0000.0001) // =======================================================
(PID.TID 0000.0001) // End MONITOR dynamic field statistics
(PID.TID 0000.0001) // =======================================================
(PID.TID 0000.0001) // =======================================================
(PID.TID 0000.0001) // Begin OBCS MONITOR field statistics
(PID.TID 0000.0001) // =======================================================
(PID.TID 0000.0001) %MON obc_N_vVel_max               =  -6.4049871031969E-08
(PID.TID 0000.0001) %MON obc_N_vVel_min               =  -6.4049871031970E-08
(PID.TID 0000.0001) %MON obc_N_vVel_mean              =  -6.4049871031969E-08
(PID.TID 0000.0001) %MON obc_N_vVel_sd                =   1.2402736654388E-14
(PID.TID 0000.0001) %MON obc_N_vVel_Int               =  -4.2272914881099E+00
(PID.TID 0000.0001) // =======================================================
(PID.TID 0000.0001) // End OBCS MONITOR field statistics
(PID.TID 0000.0001) // =======================================================
 cg2d: Sum(rhs),rhsMax =   3.01094730243368E+00  4.53047799196026E+02
(PID.TID 0000.0001)      cg2d_init_res =   1.61734965316353E-06
(PID.TID 0000.0001)      cg2d_iters(min,last) =      -1      72
(PID.TID 0000.0001)      cg2d_last_res =   8.43936272726212E-12
(PID.TID 0000.0001) // =======================================================
(PID.TID 0000.0001) // Begin MONITOR dynamic field statistics
(PID.TID 0000.0001) // =======================================================
(PID.TID 0000.0001) %MON time_tsnumber                =                   753
(PID.TID 0000.0001) %MON time_secondsf                =   7.5300000000000E+04
(PID.TID 0000.0001) %MON dynstat_eta_max              =   5.7975566838128E+00
(PID.TID 0000.0001) %MON dynstat_eta_min              =  -1.4174793110568E+01
(PID.TID 0000.0001) %MON dynstat_eta_mean             =  -2.5261167571533E+00
(PID.TID 0000.0001) %MON dynstat_eta_sd               =   4.9416767309606E+00
(PID.TID 0000.0001) %MON dynstat_eta_del2             =   1.9058217342157E-01
(PID.TID 0000.0001) %MON dynstat_uvel_max             =   3.2176982221461E-03
(PID.TID 0000.0001) %MON dynstat_uvel_min             =  -1.0910128674588E-02
(PID.TID 0000.0001) %MON dynstat_uvel_mean            =  -1.1407980245678E-09
(PID.TID 0000.0001) %MON dynstat_uvel_sd              =   2.8892308845442E-04
(PID.TID 0000.0001) %MON dynstat_uvel_del2            =   4.9329922496533E-07
(PID.TID 0000.0001) %MON dynstat_vvel_max             =   9.1523801484579E-03
(PID.TID 0000.0001) %MON dynstat_vvel_min             =  -3.0892562662741E-03
(PID.TID 0000.0001) %MON dynstat_vvel_mean            =  -4.8865590535318E-08
(PID.TID 0000.0001) %MON dynstat_vvel_sd              =   1.6935863769859E-04
(PID.TID 0000.0001) %MON dynstat_vvel_del2            =   4.6328619370846E-07
(PID.TID 0000.0001) %MON dynstat_wvel_max             =   4.2147742690381E-04
(PID.TID 0000.0001) %MON dynstat_wvel_min             =  -4.1171111808743E-04
(PID.TID 0000.0001) %MON dynstat_wvel_mean            =   1.8183338724890E-10
(PID.TID 0000.0001) %MON dynstat_wvel_sd              =   1.0603535574636E-05
(PID.TID 0000.0001) %MON dynstat_wvel_del2            =   4.3818333717362E-08
(PID.TID 0000.0001) %MON dynstat_theta_max            =   1.2000000000000E+00
(PID.TID 0000.0001) %MON dynstat_theta_min            =  -1.0000000000000E+00
(PID.TID 0000.0001) %MON dynstat_theta_mean           =   5.6532832635919E-01
(PID.TID 0000.0001) %MON dynstat_theta_sd             =   8.4902180467006E-01
(PID.TID 0000.0001) %MON dynstat_theta_del2           =   1.2948720955747E-06
(PID.TID 0000.0001) %MON dynstat_salt_max             =   3.4700000000000E+01
(PID.TID 0000.0001) %MON dynstat_salt_min             =   3.4000000000000E+01
(PID.TID 0000.0001) %MON dynstat_salt_mean            =   3.4498045084442E+01
(PID.TID 0000.0001) %MON dynstat_salt_sd              =   2.7014329161324E-01
(PID.TID 0000.0001) %MON dynstat_salt_del2            =   5.0724265382762E-07
(PID.TID 0000.0001) %MON advcfl_uvel_max              =   1.0910128674588E-03
(PID.TID 0000.0001) %MON advcfl_vvel_max              =   9.1523801484579E-04
(PID.TID 0000.0001) %MON advcfl_wvel_max              =   2.1073871345191E-03
(PID.TID 0000.0001) %MON advcfl_W_hf_max              =   2.1073871345191E-03
(PID.TID 0000.0001) %MON pe_b_mean                    =  -6.8256202652665E-01
(PID.TID 0000.0001) %MON ke_max                       =   3.6549959151597E-05
(PID.TID 0000.0001) %MON ke_mean                      =   5.5294389834819E-08
(PID.TID 0000.0001) %MON ke_vol                       =   4.6182948485424E+12
(PID.TID 0000.0001) // =======================================================
(PID.TID 0000.0001) // End MONITOR dynamic field statistics
(PID.TID 0000.0001) // =======================================================
(PID.TID 0000.0001) // =======================================================
(PID.TID 0000.0001) // Begin OBCS MONITOR field statistics
(PID.TID 0000.0001) // =======================================================
(PID.TID 0000.0001) %MON obc_N_vVel_max               =  -6.3754591544574E-08
(PID.TID 0000.0001) %MON obc_N_vVel_min               =  -6.3754591544574E-08
(PID.TID 0000.0001) %MON obc_N_vVel_mean              =  -6.3754591544574E-08
(PID.TID 0000.0001) %MON obc_N_vVel_sd                =   1.2529298469547E-14
(PID.TID 0000.0001) %MON obc_N_vVel_Int               =  -4.2078030419419E+00
(PID.TID 0000.0001) // =======================================================
(PID.TID 0000.0001) // End OBCS MONITOR field statistics
(PID.TID 0000.0001) // =======================================================
 cg2d: Sum(rhs),rhsMax =   3.01094375856111E+00  4.53047790607839E+02
(PID.TID 0000.0001)      cg2d_init_res =   1.61216659611788E-06
(PID.TID 0000.0001)      cg2d_iters(min,last) =      -1      72
(PID.TID 0000.0001)      cg2d_last_res =   8.47276220203261E-12
(PID.TID 0000.0001) // =======================================================
(PID.TID 0000.0001) // Begin MONITOR dynamic field statistics
(PID.TID 0000.0001) // =======================================================
(PID.TID 0000.0001) %MON time_tsnumber                =                   754
(PID.TID 0000.0001) %MON time_secondsf                =   7.5400000000000E+04
(PID.TID 0000.0001) %MON dynstat_eta_max              =   5.7975594567296E+00
(PID.TID 0000.0001) %MON dynstat_eta_min              =  -1.4174788379591E+01
(PID.TID 0000.0001) %MON dynstat_eta_mean             =  -2.5261137360381E+00
(PID.TID 0000.0001) %MON dynstat_eta_sd               =   4.9416758041322E+00
(PID.TID 0000.0001) %MON dynstat_eta_del2             =   1.9058217953531E-01
(PID.TID 0000.0001) %MON dynstat_uvel_max             =   3.2228077888981E-03
(PID.TID 0000.0001) %MON dynstat_uvel_min             =  -1.0940815919505E-02
(PID.TID 0000.0001) %MON dynstat_uvel_mean            =  -1.1412067622721E-09
(PID.TID 0000.0001) %MON dynstat_uvel_sd              =   2.8965638849191E-04
(PID.TID 0000.0001) %MON dynstat_uvel_del2            =   4.9438018330745E-07
(PID.TID 0000.0001) %MON dynstat_vvel_max             =   9.1712216227349E-03
(PID.TID 0000.0001) %MON dynstat_vvel_min             =  -3.0976161167082E-03
(PID.TID 0000.0001) %MON dynstat_vvel_mean            =  -4.8494316110573E-08
(PID.TID 0000.0001) %MON dynstat_vvel_sd              =   1.6971788013638E-04
(PID.TID 0000.0001) %MON dynstat_vvel_del2            =   4.6399938737683E-07
(PID.TID 0000.0001) %MON dynstat_wvel_max             =   4.2281499423790E-04
(PID.TID 0000.0001) %MON dynstat_wvel_min             =  -4.1312156070853E-04
(PID.TID 0000.0001) %MON dynstat_wvel_mean            =   1.8213014420840E-10
(PID.TID 0000.0001) %MON dynstat_wvel_sd              =   1.0513640250053E-05
(PID.TID 0000.0001) %MON dynstat_wvel_del2            =   4.3116055184758E-08
(PID.TID 0000.0001) %MON dynstat_theta_max            =   1.2000000000000E+00
(PID.TID 0000.0001) %MON dynstat_theta_min            =  -1.0000000000000E+00
(PID.TID 0000.0001) %MON dynstat_theta_mean           =   5.6532799608213E-01
(PID.TID 0000.0001) %MON dynstat_theta_sd             =   8.4902168399684E-01
(PID.TID 0000.0001) %MON dynstat_theta_del2           =   1.2976960398148E-06
(PID.TID 0000.0001) %MON dynstat_salt_max             =   3.4700000000000E+01
(PID.TID 0000.0001) %MON dynstat_salt_min             =   3.4000000000000E+01
(PID.TID 0000.0001) %MON dynstat_salt_mean            =   3.4498044953074E+01
(PID.TID 0000.0001) %MON dynstat_salt_sd              =   2.7014324829367E-01
(PID.TID 0000.0001) %MON dynstat_salt_del2            =   5.0834680640071E-07
(PID.TID 0000.0001) %MON advcfl_uvel_max              =   1.0940815919505E-03
(PID.TID 0000.0001) %MON advcfl_vvel_max              =   9.1712216227349E-04
(PID.TID 0000.0001) %MON advcfl_wvel_max              =   2.1140749711895E-03
(PID.TID 0000.0001) %MON advcfl_W_hf_max              =   2.1140749711895E-03
(PID.TID 0000.0001) %MON pe_b_mean                    =  -6.8256117032543E-01
(PID.TID 0000.0001) %MON ke_max                       =   3.6755076521942E-05
(PID.TID 0000.0001) %MON ke_mean                      =   5.5563441633047E-08
(PID.TID 0000.0001) %MON ke_vol                       =   4.6182948664625E+12
(PID.TID 0000.0001) // =======================================================
(PID.TID 0000.0001) // End MONITOR dynamic field statistics
(PID.TID 0000.0001) // =======================================================
(PID.TID 0000.0001) // =======================================================
(PID.TID 0000.0001) // Begin OBCS MONITOR field statistics
(PID.TID 0000.0001) // =======================================================
(PID.TID 0000.0001) %MON obc_N_vVel_max               =  -6.3442740923248E-08
(PID.TID 0000.0001) %MON obc_N_vVel_min               =  -6.3442740923249E-08
(PID.TID 0000.0001) %MON obc_N_vVel_mean              =  -6.3442740923248E-08
(PID.TID 0000.0001) %MON obc_N_vVel_sd                =   1.2015054958486E-14
(PID.TID 0000.0001) %MON obc_N_vVel_Int               =  -4.1872209009344E+00
(PID.TID 0000.0001) // =======================================================
(PID.TID 0000.0001) // End OBCS MONITOR field statistics
(PID.TID 0000.0001) // =======================================================
 cg2d: Sum(rhs),rhsMax =   3.01094020952451E+00  4.53047782028689E+02
(PID.TID 0000.0001)      cg2d_init_res =   1.60689775177952E-06
(PID.TID 0000.0001)      cg2d_iters(min,last) =      -1      72
(PID.TID 0000.0001)      cg2d_last_res =   8.50638181235922E-12
(PID.TID 0000.0001) // =======================================================
(PID.TID 0000.0001) // Begin MONITOR dynamic field statistics
(PID.TID 0000.0001) // =======================================================
(PID.TID 0000.0001) %MON time_tsnumber                =                   755
(PID.TID 0000.0001) %MON time_secondsf                =   7.5500000000000E+04
(PID.TID 0000.0001) %MON dynstat_eta_max              =   5.7975622320567E+00
(PID.TID 0000.0001) %MON dynstat_eta_min              =  -1.4174783640013E+01
(PID.TID 0000.0001) %MON dynstat_eta_mean             =  -2.5261107106409E+00
(PID.TID 0000.0001) %MON dynstat_eta_sd               =   4.9416748761529E+00
(PID.TID 0000.0001) %MON dynstat_eta_del2             =   1.9058218566624E-01
(PID.TID 0000.0001) %MON dynstat_uvel_max             =   3.2279200672907E-03
(PID.TID 0000.0001) %MON dynstat_uvel_min             =  -1.0971571115878E-02
(PID.TID 0000.0001) %MON dynstat_uvel_mean            =  -1.1412736297523E-09
(PID.TID 0000.0001) %MON dynstat_uvel_sd              =   2.9039263651803E-04
(PID.TID 0000.0001) %MON dynstat_uvel_del2            =   4.9546421545377E-07
(PID.TID 0000.0001) %MON dynstat_vvel_max             =   9.1900897612260E-03
(PID.TID 0000.0001) %MON dynstat_vvel_min             =  -3.1059895016181E-03
(PID.TID 0000.0001) %MON dynstat_vvel_mean            =  -4.8119380898675E-08
(PID.TID 0000.0001) %MON dynstat_vvel_sd              =   1.7007948871536E-04
(PID.TID 0000.0001) %MON dynstat_vvel_del2            =   4.6472705743224E-07
(PID.TID 0000.0001) %MON dynstat_wvel_max             =   4.2415554422764E-04
(PID.TID 0000.0001) %MON dynstat_wvel_min             =  -4.1453690458627E-04
(PID.TID 0000.0001) %MON dynstat_wvel_mean            =   1.8236629700309E-10
(PID.TID 0000.0001) %MON dynstat_wvel_sd              =   1.0427643606426E-05
(PID.TID 0000.0001) %MON dynstat_wvel_del2            =   4.2430136530040E-08
(PID.TID 0000.0001) %MON dynstat_theta_max            =   1.2000000000000E+00
(PID.TID 0000.0001) %MON dynstat_theta_min            =  -1.0000000000000E+00
(PID.TID 0000.0001) %MON dynstat_theta_mean           =   5.6532766522815E-01
(PID.TID 0000.0001) %MON dynstat_theta_sd             =   8.4902156307757E-01
(PID.TID 0000.0001) %MON dynstat_theta_del2           =   1.3005033194791E-06
(PID.TID 0000.0001) %MON dynstat_salt_max             =   3.4700000000000E+01
(PID.TID 0000.0001) %MON dynstat_salt_min             =   3.4000000000000E+01
(PID.TID 0000.0001) %MON dynstat_salt_mean            =   3.4498044821480E+01
(PID.TID 0000.0001) %MON dynstat_salt_sd              =   2.7014320487288E-01
(PID.TID 0000.0001) %MON dynstat_salt_del2            =   5.0944754995450E-07
(PID.TID 0000.0001) %MON advcfl_uvel_max              =   1.0971571115878E-03
(PID.TID 0000.0001) %MON advcfl_vvel_max              =   9.1900897612260E-04
(PID.TID 0000.0001) %MON advcfl_wvel_max              =   2.1207777211382E-03
(PID.TID 0000.0001) %MON advcfl_W_hf_max              =   2.1207777211382E-03
(PID.TID 0000.0001) %MON pe_b_mean                    =  -6.8256031274818E-01
(PID.TID 0000.0001) %MON ke_max                       =   3.6961227588422E-05
(PID.TID 0000.0001) %MON ke_mean                      =   5.5834392496588E-08
(PID.TID 0000.0001) %MON ke_vol                       =   4.6182948844079E+12
(PID.TID 0000.0001) // =======================================================
(PID.TID 0000.0001) // End MONITOR dynamic field statistics
(PID.TID 0000.0001) // =======================================================
(PID.TID 0000.0001) // =======================================================
(PID.TID 0000.0001) // Begin OBCS MONITOR field statistics
(PID.TID 0000.0001) // =======================================================
(PID.TID 0000.0001) %MON obc_N_vVel_max               =  -6.3122295848167E-08
(PID.TID 0000.0001) %MON obc_N_vVel_min               =  -6.3122295848170E-08
(PID.TID 0000.0001) %MON obc_N_vVel_mean              =  -6.3122295848170E-08
(PID.TID 0000.0001) %MON obc_N_vVel_sd                =  -2.4533574152373E-28
(PID.TID 0000.0001) %MON obc_N_vVel_Int               =  -4.1660715259792E+00
(PID.TID 0000.0001) // =======================================================
(PID.TID 0000.0001) // End OBCS MONITOR field statistics
(PID.TID 0000.0001) // =======================================================
 cg2d: Sum(rhs),rhsMax =   3.01093665530055E+00  4.53047773458354E+02
(PID.TID 0000.0001)      cg2d_init_res =   1.60223695562834E-06
(PID.TID 0000.0001)      cg2d_iters(min,last) =      -1      72
(PID.TID 0000.0001)      cg2d_last_res =   8.54003113784225E-12
(PID.TID 0000.0001) // =======================================================
(PID.TID 0000.0001) // Begin MONITOR dynamic field statistics
(PID.TID 0000.0001) // =======================================================
(PID.TID 0000.0001) %MON time_tsnumber                =                   756
(PID.TID 0000.0001) %MON time_secondsf                =   7.5600000000000E+04
(PID.TID 0000.0001) %MON dynstat_eta_max              =   5.7975650097562E+00
(PID.TID 0000.0001) %MON dynstat_eta_min              =  -1.4174778891644E+01
(PID.TID 0000.0001) %MON dynstat_eta_mean             =  -2.5261076809408E+00
(PID.TID 0000.0001) %MON dynstat_eta_sd               =   4.9416739470065E+00
(PID.TID 0000.0001) %MON dynstat_eta_del2             =   1.9058219181427E-01
(PID.TID 0000.0001) %MON dynstat_uvel_max             =   3.2330350052110E-03
(PID.TID 0000.0001) %MON dynstat_uvel_min             =  -1.1002394323701E-02
(PID.TID 0000.0001) %MON dynstat_uvel_mean            =  -1.1409924202742E-09
(PID.TID 0000.0001) %MON dynstat_uvel_sd              =   2.9113183906859E-04
(PID.TID 0000.0001) %MON dynstat_uvel_del2            =   4.9655132742408E-07
(PID.TID 0000.0001) %MON dynstat_vvel_max             =   9.2089845469856E-03
(PID.TID 0000.0001) %MON dynstat_vvel_min             =  -3.1143764611565E-03
(PID.TID 0000.0001) %MON dynstat_vvel_mean            =  -4.7749678041890E-08
(PID.TID 0000.0001) %MON dynstat_vvel_sd              =   1.7044498297834E-04
(PID.TID 0000.0001) %MON dynstat_vvel_del2            =   4.6548531061407E-07
(PID.TID 0000.0001) %MON dynstat_wvel_max             =   4.2549908124446E-04
(PID.TID 0000.0001) %MON dynstat_wvel_min             =  -4.1595715694963E-04
(PID.TID 0000.0001) %MON dynstat_wvel_mean            =   1.8254186306407E-10
(PID.TID 0000.0001) %MON dynstat_wvel_sd              =   1.0353244460650E-05
(PID.TID 0000.0001) %MON dynstat_wvel_del2            =   4.1823245514568E-08
(PID.TID 0000.0001) %MON dynstat_theta_max            =   1.2000000000000E+00
(PID.TID 0000.0001) %MON dynstat_theta_min            =  -1.0000000000000E+00
(PID.TID 0000.0001) %MON dynstat_theta_mean           =   5.6532733380236E-01
(PID.TID 0000.0001) %MON dynstat_theta_sd             =   8.4902144190286E-01
(PID.TID 0000.0001) %MON dynstat_theta_del2           =   1.3032749513898E-06
(PID.TID 0000.0001) %MON dynstat_salt_max             =   3.4700000000000E+01
(PID.TID 0000.0001) %MON dynstat_salt_min             =   3.4000000000000E+01
(PID.TID 0000.0001) %MON dynstat_salt_mean            =   3.4498044689662E+01
(PID.TID 0000.0001) %MON dynstat_salt_sd              =   2.7014316134775E-01
(PID.TID 0000.0001) %MON dynstat_salt_del2            =   5.1053997941703E-07
(PID.TID 0000.0001) %MON advcfl_uvel_max              =   1.1002394323701E-03
(PID.TID 0000.0001) %MON advcfl_vvel_max              =   9.2089845469856E-04
(PID.TID 0000.0001) %MON advcfl_wvel_max              =   2.1274954062223E-03
(PID.TID 0000.0001) %MON advcfl_W_hf_max              =   2.1274954062223E-03
(PID.TID 0000.0001) %MON pe_b_mean                    =  -6.8255945378681E-01
(PID.TID 0000.0001) %MON ke_max                       =   3.7168416484663E-05
(PID.TID 0000.0001) %MON ke_mean                      =   5.6107512237294E-08
(PID.TID 0000.0001) %MON ke_vol                       =   4.6182949023788E+12
(PID.TID 0000.0001) // =======================================================
(PID.TID 0000.0001) // End MONITOR dynamic field statistics
(PID.TID 0000.0001) // =======================================================
(PID.TID 0000.0001) // =======================================================
(PID.TID 0000.0001) // Begin OBCS MONITOR field statistics
(PID.TID 0000.0001) // =======================================================
(PID.TID 0000.0001) %MON obc_N_vVel_max               =  -6.2801398337793E-08
(PID.TID 0000.0001) %MON obc_N_vVel_min               =  -6.2801398337795E-08
(PID.TID 0000.0001) %MON obc_N_vVel_mean              =  -6.2801398337795E-08
(PID.TID 0000.0001) %MON obc_N_vVel_sd                =  -1.8774889544260E-28
(PID.TID 0000.0001) %MON obc_N_vVel_Int               =  -4.1448922902945E+00
(PID.TID 0000.0001) // =======================================================
(PID.TID 0000.0001) // End OBCS MONITOR field statistics
(PID.TID 0000.0001) // =======================================================
 cg2d: Sum(rhs),rhsMax =   3.01093309585799E+00  4.53047764896669E+02
(PID.TID 0000.0001)      cg2d_init_res =   1.59883671882656E-06
(PID.TID 0000.0001)      cg2d_iters(min,last) =      -1      72
(PID.TID 0000.0001)      cg2d_last_res =   8.57334237771272E-12
(PID.TID 0000.0001) // =======================================================
(PID.TID 0000.0001) // Begin MONITOR dynamic field statistics
(PID.TID 0000.0001) // =======================================================
(PID.TID 0000.0001) %MON time_tsnumber                =                   757
(PID.TID 0000.0001) %MON time_secondsf                =   7.5700000000000E+04
(PID.TID 0000.0001) %MON dynstat_eta_max              =   5.7975677898023E+00
(PID.TID 0000.0001) %MON dynstat_eta_min              =  -1.4174774134266E+01
(PID.TID 0000.0001) %MON dynstat_eta_mean             =  -2.5261046469109E+00
(PID.TID 0000.0001) %MON dynstat_eta_sd               =   4.9416730166799E+00
(PID.TID 0000.0001) %MON dynstat_eta_del2             =   1.9058219797958E-01
(PID.TID 0000.0001) %MON dynstat_uvel_max             =   3.2381525504750E-03
(PID.TID 0000.0001) %MON dynstat_uvel_min             =  -1.1033285602385E-02
(PID.TID 0000.0001) %MON dynstat_uvel_mean            =  -1.1403699182858E-09
(PID.TID 0000.0001) %MON dynstat_uvel_sd              =   2.9187400239011E-04
(PID.TID 0000.0001) %MON dynstat_uvel_del2            =   4.9764152750819E-07
(PID.TID 0000.0001) %MON dynstat_vvel_max             =   9.2279059624438E-03
(PID.TID 0000.0001) %MON dynstat_vvel_min             =  -3.1227770356370E-03
(PID.TID 0000.0001) %MON dynstat_vvel_mean            =  -4.7393811066721E-08
(PID.TID 0000.0001) %MON dynstat_vvel_sd              =   1.7081563717495E-04
(PID.TID 0000.0001) %MON dynstat_vvel_del2            =   4.6628749754626E-07
(PID.TID 0000.0001) %MON dynstat_wvel_max             =   4.2684560981417E-04
(PID.TID 0000.0001) %MON dynstat_wvel_min             =  -4.1738232507178E-04
(PID.TID 0000.0001) %MON dynstat_wvel_mean            =   1.8265867536369E-10
(PID.TID 0000.0001) %MON dynstat_wvel_sd              =   1.0297127772546E-05
(PID.TID 0000.0001) %MON dynstat_wvel_del2            =   4.1352645916489E-08
(PID.TID 0000.0001) %MON dynstat_theta_max            =   1.2000000000000E+00
(PID.TID 0000.0001) %MON dynstat_theta_min            =  -1.0000000000000E+00
(PID.TID 0000.0001) %MON dynstat_theta_mean           =   5.6532700181139E-01
(PID.TID 0000.0001) %MON dynstat_theta_sd             =   8.4902132045863E-01
(PID.TID 0000.0001) %MON dynstat_theta_del2           =   1.3059956302570E-06
(PID.TID 0000.0001) %MON dynstat_salt_max             =   3.4700000000000E+01
(PID.TID 0000.0001) %MON dynstat_salt_min             =   3.4000000000000E+01
(PID.TID 0000.0001) %MON dynstat_salt_mean            =   3.4498044557621E+01
(PID.TID 0000.0001) %MON dynstat_salt_sd              =   2.7014311771375E-01
(PID.TID 0000.0001) %MON dynstat_salt_del2            =   5.1162014795044E-07
(PID.TID 0000.0001) %MON advcfl_uvel_max              =   1.1033285602385E-03
(PID.TID 0000.0001) %MON advcfl_vvel_max              =   9.2279059624438E-04
(PID.TID 0000.0001) %MON advcfl_wvel_max              =   2.1342280490709E-03
(PID.TID 0000.0001) %MON advcfl_W_hf_max              =   2.1342280490709E-03
(PID.TID 0000.0001) %MON pe_b_mean                    =  -6.8255859343244E-01
(PID.TID 0000.0001) %MON ke_max                       =   3.7376647352313E-05
(PID.TID 0000.0001) %MON ke_mean                      =   5.6383030987445E-08
(PID.TID 0000.0001) %MON ke_vol                       =   4.6182949203752E+12
(PID.TID 0000.0001) // =======================================================
(PID.TID 0000.0001) // End MONITOR dynamic field statistics
(PID.TID 0000.0001) // =======================================================
(PID.TID 0000.0001) // =======================================================
(PID.TID 0000.0001) // Begin OBCS MONITOR field statistics
(PID.TID 0000.0001) // =======================================================
(PID.TID 0000.0001) %MON obc_N_vVel_max               =  -6.2488075965911E-08
(PID.TID 0000.0001) %MON obc_N_vVel_min               =  -6.2488075965914E-08
(PID.TID 0000.0001) %MON obc_N_vVel_mean              =  -6.2488075965914E-08
(PID.TID 0000.0001) %MON obc_N_vVel_sd                =  -4.5438388140730E-28
(PID.TID 0000.0001) %MON obc_N_vVel_Int               =  -4.1242130137503E+00
(PID.TID 0000.0001) // =======================================================
(PID.TID 0000.0001) // End OBCS MONITOR field statistics
(PID.TID 0000.0001) // =======================================================
 cg2d: Sum(rhs),rhsMax =   3.01092953115088E+00  4.53047756343564E+02
(PID.TID 0000.0001)      cg2d_init_res =   1.59721128016107E-06
(PID.TID 0000.0001)      cg2d_iters(min,last) =      -1      72
(PID.TID 0000.0001)      cg2d_last_res =   8.60595639084880E-12
(PID.TID 0000.0001) // =======================================================
(PID.TID 0000.0001) // Begin MONITOR dynamic field statistics
(PID.TID 0000.0001) // =======================================================
(PID.TID 0000.0001) %MON time_tsnumber                =                   758
(PID.TID 0000.0001) %MON time_secondsf                =   7.5800000000000E+04
(PID.TID 0000.0001) %MON dynstat_eta_max              =   5.7975705721674E+00
(PID.TID 0000.0001) %MON dynstat_eta_min              =  -1.4174769367654E+01
(PID.TID 0000.0001) %MON dynstat_eta_mean             =  -2.5261016085120E+00
(PID.TID 0000.0001) %MON dynstat_eta_sd               =   4.9416720851547E+00
(PID.TID 0000.0001) %MON dynstat_eta_del2             =   1.9058220416226E-01
(PID.TID 0000.0001) %MON dynstat_uvel_max             =   3.2432726508844E-03
(PID.TID 0000.0001) %MON dynstat_uvel_min             =  -1.1064245010703E-02
(PID.TID 0000.0001) %MON dynstat_uvel_mean            =  -1.1394274247669E-09
(PID.TID 0000.0001) %MON dynstat_uvel_sd              =   2.9261913248090E-04
(PID.TID 0000.0001) %MON dynstat_uvel_del2            =   4.9873482706143E-07
(PID.TID 0000.0001) %MON dynstat_vvel_max             =   9.2468539896433E-03
(PID.TID 0000.0001) %MON dynstat_vvel_min             =  -3.1311912653980E-03
(PID.TID 0000.0001) %MON dynstat_vvel_mean            =  -4.7059837635385E-08
(PID.TID 0000.0001) %MON dynstat_vvel_sd              =   1.7119237616957E-04
(PID.TID 0000.0001) %MON dynstat_vvel_del2            =   4.6714309365351E-07
(PID.TID 0000.0001) %MON dynstat_wvel_max             =   4.2819513458689E-04
(PID.TID 0000.0001) %MON dynstat_wvel_min             =  -4.1881241617775E-04
(PID.TID 0000.0001) %MON dynstat_wvel_mean            =   1.8272025078649E-10
(PID.TID 0000.0001) %MON dynstat_wvel_sd              =   1.0264298456340E-05
(PID.TID 0000.0001) %MON dynstat_wvel_del2            =   4.1063715511550E-08
(PID.TID 0000.0001) %MON dynstat_theta_max            =   1.2000000000000E+00
(PID.TID 0000.0001) %MON dynstat_theta_min            =  -1.0000000000000E+00
(PID.TID 0000.0001) %MON dynstat_theta_mean           =   5.6532666926252E-01
(PID.TID 0000.0001) %MON dynstat_theta_sd             =   8.4902119873856E-01
(PID.TID 0000.0001) %MON dynstat_theta_del2           =   1.3086550170016E-06
(PID.TID 0000.0001) %MON dynstat_salt_max             =   3.4700000000000E+01
(PID.TID 0000.0001) %MON dynstat_salt_min             =   3.4000000000000E+01
(PID.TID 0000.0001) %MON dynstat_salt_mean            =   3.4498044425359E+01
(PID.TID 0000.0001) %MON dynstat_salt_sd              =   2.7014307396892E-01
(PID.TID 0000.0001) %MON dynstat_salt_del2            =   5.1268538791579E-07
(PID.TID 0000.0001) %MON advcfl_uvel_max              =   1.1064245010703E-03
(PID.TID 0000.0001) %MON advcfl_vvel_max              =   9.2468539896433E-04
(PID.TID 0000.0001) %MON advcfl_wvel_max              =   2.1409756729345E-03
(PID.TID 0000.0001) %MON advcfl_W_hf_max              =   2.1409756729345E-03
(PID.TID 0000.0001) %MON pe_b_mean                    =  -6.8255773167353E-01
(PID.TID 0000.0001) %MON ke_max                       =   3.7585924340564E-05
(PID.TID 0000.0001) %MON ke_mean                      =   5.6661120999318E-08
(PID.TID 0000.0001) %MON ke_vol                       =   4.6182949383973E+12
(PID.TID 0000.0001) // =======================================================
(PID.TID 0000.0001) // End MONITOR dynamic field statistics
(PID.TID 0000.0001) // =======================================================
(PID.TID 0000.0001) // =======================================================
(PID.TID 0000.0001) // Begin OBCS MONITOR field statistics
(PID.TID 0000.0001) // =======================================================
(PID.TID 0000.0001) %MON obc_N_vVel_max               =  -6.2190000730022E-08
(PID.TID 0000.0001) %MON obc_N_vVel_min               =  -6.2190000730022E-08
(PID.TID 0000.0001) %MON obc_N_vVel_mean              =  -6.2190000730022E-08
(PID.TID 0000.0001) %MON obc_N_vVel_sd                =  -1.7354939914862E-29
(PID.TID 0000.0001) %MON obc_N_vVel_Int               =  -4.1045400481815E+00
(PID.TID 0000.0001) // =======================================================
(PID.TID 0000.0001) // End OBCS MONITOR field statistics
(PID.TID 0000.0001) // =======================================================
 cg2d: Sum(rhs),rhsMax =   3.01092596112715E+00  4.53047747799029E+02
(PID.TID 0000.0001)      cg2d_init_res =   1.59773087088783E-06
(PID.TID 0000.0001)      cg2d_iters(min,last) =      -1      72
(PID.TID 0000.0001)      cg2d_last_res =   8.63736595221041E-12
(PID.TID 0000.0001) // =======================================================
(PID.TID 0000.0001) // Begin MONITOR dynamic field statistics
(PID.TID 0000.0001) // =======================================================
(PID.TID 0000.0001) %MON time_tsnumber                =                   759
(PID.TID 0000.0001) %MON time_secondsf                =   7.5900000000000E+04
(PID.TID 0000.0001) %MON dynstat_eta_max              =   5.7975733568308E+00
(PID.TID 0000.0001) %MON dynstat_eta_min              =  -1.4174764591562E+01
(PID.TID 0000.0001) %MON dynstat_eta_mean             =  -2.5260985657005E+00
(PID.TID 0000.0001) %MON dynstat_eta_sd               =   4.9416711524113E+00
(PID.TID 0000.0001) %MON dynstat_eta_del2             =   1.9058221036234E-01
(PID.TID 0000.0001) %MON dynstat_uvel_max             =   3.2483952541380E-03
(PID.TID 0000.0001) %MON dynstat_uvel_min             =  -1.1095272606799E-02
(PID.TID 0000.0001) %MON dynstat_uvel_mean            =  -1.1381952613400E-09
(PID.TID 0000.0001) %MON dynstat_uvel_sd              =   2.9336723511498E-04
(PID.TID 0000.0001) %MON dynstat_uvel_del2            =   4.9983124101132E-07
(PID.TID 0000.0001) %MON dynstat_vvel_max             =   9.2658286099676E-03
(PID.TID 0000.0001) %MON dynstat_vvel_min             =  -3.1396191908479E-03
(PID.TID 0000.0001) %MON dynstat_vvel_mean            =  -4.6755011924817E-08
(PID.TID 0000.0001) %MON dynstat_vvel_sd              =   1.7157570382409E-04
(PID.TID 0000.0001) %MON dynstat_vvel_del2            =   4.6805693744236E-07
(PID.TID 0000.0001) %MON dynstat_wvel_max             =   4.2954766031869E-04
(PID.TID 0000.0001) %MON dynstat_wvel_min             =  -4.2024743750833E-04
(PID.TID 0000.0001) %MON dynstat_wvel_mean            =   1.8273191855317E-10
(PID.TID 0000.0001) %MON dynstat_wvel_sd              =   1.0257562964324E-05
(PID.TID 0000.0001) %MON dynstat_wvel_del2            =   4.0984176413134E-08
(PID.TID 0000.0001) %MON dynstat_theta_max            =   1.2000000000000E+00
(PID.TID 0000.0001) %MON dynstat_theta_min            =  -1.0000000000000E+00
(PID.TID 0000.0001) %MON dynstat_theta_mean           =   5.6532633616414E-01
(PID.TID 0000.0001) %MON dynstat_theta_sd             =   8.4902107673517E-01
(PID.TID 0000.0001) %MON dynstat_theta_del2           =   1.3112485111378E-06
(PID.TID 0000.0001) %MON dynstat_salt_max             =   3.4700000000000E+01
(PID.TID 0000.0001) %MON dynstat_salt_min             =   3.4000000000000E+01
(PID.TID 0000.0001) %MON dynstat_salt_mean            =   3.4498044292880E+01
(PID.TID 0000.0001) %MON dynstat_salt_sd              =   2.7014303011071E-01
(PID.TID 0000.0001) %MON dynstat_salt_del2            =   5.1373451602464E-07
(PID.TID 0000.0001) %MON advcfl_uvel_max              =   1.1095272606799E-03
(PID.TID 0000.0001) %MON advcfl_vvel_max              =   9.2658286099676E-04
(PID.TID 0000.0001) %MON advcfl_wvel_max              =   2.1477383015934E-03
(PID.TID 0000.0001) %MON advcfl_W_hf_max              =   2.1477383015934E-03
(PID.TID 0000.0001) %MON pe_b_mean                    =  -6.8255686849789E-01
(PID.TID 0000.0001) %MON ke_max                       =   3.7796251606383E-05
(PID.TID 0000.0001) %MON ke_mean                      =   5.6941883766898E-08
(PID.TID 0000.0001) %MON ke_vol                       =   4.6182949564454E+12
(PID.TID 0000.0001) // =======================================================
(PID.TID 0000.0001) // End MONITOR dynamic field statistics
(PID.TID 0000.0001) // =======================================================
(PID.TID 0000.0001) // =======================================================
(PID.TID 0000.0001) // Begin OBCS MONITOR field statistics
(PID.TID 0000.0001) // =======================================================
(PID.TID 0000.0001) %MON obc_N_vVel_max               =  -6.1914274133690E-08
(PID.TID 0000.0001) %MON obc_N_vVel_min               =  -6.1914274133692E-08
(PID.TID 0000.0001) %MON obc_N_vVel_mean              =  -6.1914274133690E-08
(PID.TID 0000.0001) %MON obc_N_vVel_sd                =   1.1982181969501E-14
(PID.TID 0000.0001) %MON obc_N_vVel_Int               =  -4.0863420928236E+00
(PID.TID 0000.0001) // =======================================================
(PID.TID 0000.0001) // End OBCS MONITOR field statistics
(PID.TID 0000.0001) // =======================================================
 cg2d: Sum(rhs),rhsMax =   3.01092238572639E+00  4.53047739263147E+02
(PID.TID 0000.0001)      cg2d_init_res =   1.60056204705028E-06
(PID.TID 0000.0001)      cg2d_iters(min,last) =      -1      72
(PID.TID 0000.0001)      cg2d_last_res =   8.66728083106610E-12
(PID.TID 0000.0001) // =======================================================
(PID.TID 0000.0001) // Begin MONITOR dynamic field statistics
(PID.TID 0000.0001) // =======================================================
(PID.TID 0000.0001) %MON time_tsnumber                =                   760
(PID.TID 0000.0001) %MON time_secondsf                =   7.6000000000000E+04
(PID.TID 0000.0001) %MON dynstat_eta_max              =   5.7975761437793E+00
(PID.TID 0000.0001) %MON dynstat_eta_min              =  -1.4174759805739E+01
(PID.TID 0000.0001) %MON dynstat_eta_mean             =  -2.5260955184262E+00
(PID.TID 0000.0001) %MON dynstat_eta_sd               =   4.9416702184304E+00
(PID.TID 0000.0001) %MON dynstat_eta_del2             =   1.9058221657993E-01
(PID.TID 0000.0001) %MON dynstat_uvel_max             =   3.2535203078492E-03
(PID.TID 0000.0001) %MON dynstat_uvel_min             =  -1.1126368448204E-02
(PID.TID 0000.0001) %MON dynstat_uvel_mean            =  -1.1367128286719E-09
(PID.TID 0000.0001) %MON dynstat_uvel_sd              =   2.9411831584325E-04
(PID.TID 0000.0001) %MON dynstat_uvel_del2            =   5.0093078766975E-07
(PID.TID 0000.0001) %MON dynstat_vvel_max             =   9.2848298043993E-03
(PID.TID 0000.0001) %MON dynstat_vvel_min             =  -3.1480608524044E-03
(PID.TID 0000.0001) %MON dynstat_vvel_mean            =  -4.6485583777508E-08
(PID.TID 0000.0001) %MON dynstat_vvel_sd              =   1.7196566942767E-04
(PID.TID 0000.0001) %MON dynstat_vvel_del2            =   4.6902889079502E-07
(PID.TID 0000.0001) %MON dynstat_wvel_max             =   4.3090319186329E-04
(PID.TID 0000.0001) %MON dynstat_wvel_min             =  -4.2168739628163E-04
(PID.TID 0000.0001) %MON dynstat_wvel_mean            =   1.8270043146740E-10
(PID.TID 0000.0001) %MON dynstat_wvel_sd              =   1.0277245924012E-05
(PID.TID 0000.0001) %MON dynstat_wvel_del2            =   4.1120349187128E-08
(PID.TID 0000.0001) %MON dynstat_theta_max            =   1.2000000000000E+00
(PID.TID 0000.0001) %MON dynstat_theta_min            =  -1.0000000000000E+00
(PID.TID 0000.0001) %MON dynstat_theta_mean           =   5.6532600252524E-01
(PID.TID 0000.0001) %MON dynstat_theta_sd             =   8.4902095444015E-01
(PID.TID 0000.0001) %MON dynstat_theta_del2           =   1.3137775050577E-06
(PID.TID 0000.0001) %MON dynstat_salt_max             =   3.4700000000000E+01
(PID.TID 0000.0001) %MON dynstat_salt_min             =   3.4000000000000E+01
(PID.TID 0000.0001) %MON dynstat_salt_mean            =   3.4498044160186E+01
(PID.TID 0000.0001) %MON dynstat_salt_sd              =   2.7014298613640E-01
(PID.TID 0000.0001) %MON dynstat_salt_del2            =   5.1476789183999E-07
(PID.TID 0000.0001) %MON advcfl_uvel_max              =   1.1126368448204E-03
(PID.TID 0000.0001) %MON advcfl_vvel_max              =   9.2848298043993E-04
(PID.TID 0000.0001) %MON advcfl_wvel_max              =   2.1545159593164E-03
(PID.TID 0000.0001) %MON advcfl_W_hf_max              =   2.1545159593164E-03
(PID.TID 0000.0001) %MON pe_b_mean                    =  -6.8255600389224E-01
(PID.TID 0000.0001) %MON ke_max                       =   3.8007633314609E-05
(PID.TID 0000.0001) %MON ke_mean                      =   5.7225343490629E-08
(PID.TID 0000.0001) %MON ke_vol                       =   4.6182949745197E+12
(PID.TID 0000.0001) // =======================================================
(PID.TID 0000.0001) // End MONITOR dynamic field statistics
(PID.TID 0000.0001) // =======================================================
(PID.TID 0000.0001) // =======================================================
(PID.TID 0000.0001) // Begin OBCS MONITOR field statistics
(PID.TID 0000.0001) // =======================================================
(PID.TID 0000.0001) %MON obc_N_vVel_max               =  -6.1667201112539E-08
(PID.TID 0000.0001) %MON obc_N_vVel_min               =  -6.1667201112541E-08
(PID.TID 0000.0001) %MON obc_N_vVel_mean              =  -6.1667201112539E-08
(PID.TID 0000.0001) %MON obc_N_vVel_sd                =   1.2242694637701E-14
(PID.TID 0000.0001) %MON obc_N_vVel_Int               =  -4.0700352734276E+00
(PID.TID 0000.0001) // =======================================================
(PID.TID 0000.0001) // End OBCS MONITOR field statistics
(PID.TID 0000.0001) // =======================================================
 cg2d: Sum(rhs),rhsMax =   3.01091880487931E+00  4.53047730736127E+02
(PID.TID 0000.0001)      cg2d_init_res =   1.60565678234831E-06
(PID.TID 0000.0001)      cg2d_iters(min,last) =      -1      72
(PID.TID 0000.0001)      cg2d_last_res =   8.69551990943413E-12
(PID.TID 0000.0001) // =======================================================
(PID.TID 0000.0001) // Begin MONITOR dynamic field statistics
(PID.TID 0000.0001) // =======================================================
(PID.TID 0000.0001) %MON time_tsnumber                =                   761
(PID.TID 0000.0001) %MON time_secondsf                =   7.6100000000000E+04
(PID.TID 0000.0001) %MON dynstat_eta_max              =   5.7975789329914E+00
(PID.TID 0000.0001) %MON dynstat_eta_min              =  -1.4174755009918E+01
(PID.TID 0000.0001) %MON dynstat_eta_mean             =  -2.5260924666320E+00
(PID.TID 0000.0001) %MON dynstat_eta_sd               =   4.9416692831926E+00
(PID.TID 0000.0001) %MON dynstat_eta_del2             =   1.9058222281517E-01
(PID.TID 0000.0001) %MON dynstat_uvel_max             =   3.2586477596173E-03
(PID.TID 0000.0001) %MON dynstat_uvel_min             =  -1.1157532591871E-02
(PID.TID 0000.0001) %MON dynstat_uvel_mean            =  -1.1350330111189E-09
(PID.TID 0000.0001) %MON dynstat_uvel_sd              =   2.9487237997864E-04
(PID.TID 0000.0001) %MON dynstat_uvel_del2            =   5.0203348802037E-07
(PID.TID 0000.0001) %MON dynstat_vvel_max             =   9.3038575535482E-03
(PID.TID 0000.0001) %MON dynstat_vvel_min             =  -3.1565162904821E-03
(PID.TID 0000.0001) %MON dynstat_vvel_mean            =  -4.6256632752652E-08
(PID.TID 0000.0001) %MON dynstat_vvel_sd              =   1.7236187431184E-04
(PID.TID 0000.0001) %MON dynstat_vvel_del2            =   4.7005394535106E-07
(PID.TID 0000.0001) %MON dynstat_wvel_max             =   4.3226173415372E-04
(PID.TID 0000.0001) %MON dynstat_wvel_min             =  -4.2313229972241E-04
(PID.TID 0000.0001) %MON dynstat_wvel_mean            =   1.8263367572338E-10
(PID.TID 0000.0001) %MON dynstat_wvel_sd              =   1.0321194027483E-05
(PID.TID 0000.0001) %MON dynstat_wvel_del2            =   4.1456436719532E-08
(PID.TID 0000.0001) %MON dynstat_theta_max            =   1.2000000000000E+00
(PID.TID 0000.0001) %MON dynstat_theta_min            =  -1.0000000000000E+00
(PID.TID 0000.0001) %MON dynstat_theta_mean           =   5.6532566835503E-01
(PID.TID 0000.0001) %MON dynstat_theta_sd             =   8.4902083183999E-01
(PID.TID 0000.0001) %MON dynstat_theta_del2           =   1.3162490324340E-06
(PID.TID 0000.0001) %MON dynstat_salt_max             =   3.4700000000000E+01
(PID.TID 0000.0001) %MON dynstat_salt_min             =   3.4000000000000E+01
(PID.TID 0000.0001) %MON dynstat_salt_mean            =   3.4498044027279E+01
(PID.TID 0000.0001) %MON dynstat_salt_sd              =   2.7014294204174E-01
(PID.TID 0000.0001) %MON dynstat_salt_del2            =   5.1578733325839E-07
(PID.TID 0000.0001) %MON advcfl_uvel_max              =   1.1157532591871E-03
(PID.TID 0000.0001) %MON advcfl_vvel_max              =   9.3038575535482E-04
(PID.TID 0000.0001) %MON advcfl_wvel_max              =   2.1613086707686E-03
(PID.TID 0000.0001) %MON advcfl_W_hf_max              =   2.1613086707686E-03
(PID.TID 0000.0001) %MON pe_b_mean                    =  -6.8255513784219E-01
(PID.TID 0000.0001) %MON ke_max                       =   3.8220073638175E-05
(PID.TID 0000.0001) %MON ke_mean                      =   5.7511447344497E-08
(PID.TID 0000.0001) %MON ke_vol                       =   4.6182949926205E+12
(PID.TID 0000.0001) // =======================================================
(PID.TID 0000.0001) // End MONITOR dynamic field statistics
(PID.TID 0000.0001) // =======================================================
(PID.TID 0000.0001) // =======================================================
(PID.TID 0000.0001) // Begin OBCS MONITOR field statistics
(PID.TID 0000.0001) // =======================================================
(PID.TID 0000.0001) %MON obc_N_vVel_max               =  -6.1454106601069E-08
(PID.TID 0000.0001) %MON obc_N_vVel_min               =  -6.1454106601071E-08
(PID.TID 0000.0001) %MON obc_N_vVel_mean              =  -6.1454106601069E-08
(PID.TID 0000.0001) %MON obc_N_vVel_sd                =   1.1164229620754E-14
(PID.TID 0000.0001) %MON obc_N_vVel_Int               =  -4.0559710356706E+00
(PID.TID 0000.0001) // =======================================================
(PID.TID 0000.0001) // End OBCS MONITOR field statistics
(PID.TID 0000.0001) // =======================================================
 cg2d: Sum(rhs),rhsMax =   3.01091521851049E+00  4.53047722218269E+02
(PID.TID 0000.0001)      cg2d_init_res =   1.61276388191184E-06
(PID.TID 0000.0001)      cg2d_iters(min,last) =      -1      72
(PID.TID 0000.0001)      cg2d_last_res =   8.72210682221746E-12
(PID.TID 0000.0001) // =======================================================
(PID.TID 0000.0001) // Begin MONITOR dynamic field statistics
(PID.TID 0000.0001) // =======================================================
(PID.TID 0000.0001) %MON time_tsnumber                =                   762
(PID.TID 0000.0001) %MON time_secondsf                =   7.6200000000000E+04
(PID.TID 0000.0001) %MON dynstat_eta_max              =   5.7975817244511E+00
(PID.TID 0000.0001) %MON dynstat_eta_min              =  -1.4174750203821E+01
(PID.TID 0000.0001) %MON dynstat_eta_mean             =  -2.5260894102565E+00
(PID.TID 0000.0001) %MON dynstat_eta_sd               =   4.9416683466778E+00
(PID.TID 0000.0001) %MON dynstat_eta_del2             =   1.9058222906826E-01
(PID.TID 0000.0001) %MON dynstat_uvel_max             =   3.2637775569615E-03
(PID.TID 0000.0001) %MON dynstat_uvel_min             =  -1.1188765094078E-02
(PID.TID 0000.0001) %MON dynstat_uvel_mean            =  -1.1332216930358E-09
(PID.TID 0000.0001) %MON dynstat_uvel_sd              =   2.9562943255473E-04
(PID.TID 0000.0001) %MON dynstat_uvel_del2            =   5.0313936473107E-07
(PID.TID 0000.0001) %MON dynstat_vvel_max             =   9.3229118375340E-03
(PID.TID 0000.0001) %MON dynstat_vvel_min             =  -3.1649855455127E-03
(PID.TID 0000.0001) %MON dynstat_vvel_mean            =  -4.6071944914250E-08
(PID.TID 0000.0001) %MON dynstat_vvel_sd              =   1.7276351720407E-04
(PID.TID 0000.0001) %MON dynstat_vvel_del2            =   4.7112275871714E-07
(PID.TID 0000.0001) %MON dynstat_wvel_max             =   4.3362329218268E-04
(PID.TID 0000.0001) %MON dynstat_wvel_min             =  -4.2458215503896E-04
(PID.TID 0000.0001) %MON dynstat_wvel_mean            =   1.8254059506019E-10
(PID.TID 0000.0001) %MON dynstat_wvel_sd              =   1.0385066082891E-05
(PID.TID 0000.0001) %MON dynstat_wvel_del2            =   4.1957052853654E-08
(PID.TID 0000.0001) %MON dynstat_theta_max            =   1.2000000000000E+00
(PID.TID 0000.0001) %MON dynstat_theta_min            =  -1.0000000000000E+00
(PID.TID 0000.0001) %MON dynstat_theta_mean           =   5.6532533366277E-01
(PID.TID 0000.0001) %MON dynstat_theta_sd             =   8.4902070891145E-01
(PID.TID 0000.0001) %MON dynstat_theta_del2           =   1.3186748620755E-06
(PID.TID 0000.0001) %MON dynstat_salt_max             =   3.4700000000000E+01
(PID.TID 0000.0001) %MON dynstat_salt_min             =   3.4000000000000E+01
(PID.TID 0000.0001) %MON dynstat_salt_mean            =   3.4498043894162E+01
(PID.TID 0000.0001) %MON dynstat_salt_sd              =   2.7014289781912E-01
(PID.TID 0000.0001) %MON dynstat_salt_del2            =   5.1679590217501E-07
(PID.TID 0000.0001) %MON advcfl_uvel_max              =   1.1188765094078E-03
(PID.TID 0000.0001) %MON advcfl_vvel_max              =   9.3229118375340E-04
(PID.TID 0000.0001) %MON advcfl_wvel_max              =   2.1681164609134E-03
(PID.TID 0000.0001) %MON advcfl_W_hf_max              =   2.1681164609134E-03
(PID.TID 0000.0001) %MON pe_b_mean                    =  -6.8255427033266E-01
(PID.TID 0000.0001) %MON ke_max                       =   3.8433576757722E-05
(PID.TID 0000.0001) %MON ke_mean                      =   5.7800072400432E-08
(PID.TID 0000.0001) %MON ke_vol                       =   4.6182950107482E+12
(PID.TID 0000.0001) // =======================================================
(PID.TID 0000.0001) // End MONITOR dynamic field statistics
(PID.TID 0000.0001) // =======================================================
(PID.TID 0000.0001) // =======================================================
(PID.TID 0000.0001) // Begin OBCS MONITOR field statistics
(PID.TID 0000.0001) // =======================================================
(PID.TID 0000.0001) %MON obc_N_vVel_max               =  -6.1279206981146E-08
(PID.TID 0000.0001) %MON obc_N_vVel_min               =  -6.1279206981147E-08
(PID.TID 0000.0001) %MON obc_N_vVel_mean              =  -6.1279206981146E-08
(PID.TID 0000.0001) %MON obc_N_vVel_sd                =   1.1580429779916E-14
(PID.TID 0000.0001) %MON obc_N_vVel_Int               =  -4.0444276607557E+00
(PID.TID 0000.0001) // =======================================================
(PID.TID 0000.0001) // End OBCS MONITOR field statistics
(PID.TID 0000.0001) // =======================================================
 cg2d: Sum(rhs),rhsMax =   3.01091162653787E+00  4.53047713709974E+02
(PID.TID 0000.0001)      cg2d_init_res =   1.62144101417868E-06
(PID.TID 0000.0001)      cg2d_iters(min,last) =      -1      72
(PID.TID 0000.0001)      cg2d_last_res =   8.74715533925546E-12
(PID.TID 0000.0001) // =======================================================
(PID.TID 0000.0001) // Begin MONITOR dynamic field statistics
(PID.TID 0000.0001) // =======================================================
(PID.TID 0000.0001) %MON time_tsnumber                =                   763
(PID.TID 0000.0001) %MON time_secondsf                =   7.6300000000000E+04
(PID.TID 0000.0001) %MON dynstat_eta_max              =   5.7975845181337E+00
(PID.TID 0000.0001) %MON dynstat_eta_min              =  -1.4174745387181E+01
(PID.TID 0000.0001) %MON dynstat_eta_mean             =  -2.5260863492329E+00
(PID.TID 0000.0001) %MON dynstat_eta_sd               =   4.9416674088619E+00
(PID.TID 0000.0001) %MON dynstat_eta_del2             =   1.9058223533921E-01
(PID.TID 0000.0001) %MON dynstat_uvel_max             =   3.2689096473995E-03
(PID.TID 0000.0001) %MON dynstat_uvel_min             =  -1.1220066010539E-02
(PID.TID 0000.0001) %MON dynstat_uvel_mean            =  -1.1313477670118E-09
(PID.TID 0000.0001) %MON dynstat_uvel_sd              =   2.9638947825573E-04
(PID.TID 0000.0001) %MON dynstat_uvel_del2            =   5.0424844121294E-07
(PID.TID 0000.0001) %MON dynstat_vvel_max             =   9.3419926361515E-03
(PID.TID 0000.0001) %MON dynstat_vvel_min             =  -3.1734686578240E-03
(PID.TID 0000.0001) %MON dynstat_vvel_mean            =  -4.5933942168863E-08
(PID.TID 0000.0001) %MON dynstat_vvel_sd              =   1.7316947349654E-04
(PID.TID 0000.0001) %MON dynstat_vvel_del2            =   4.7222256454732E-07
(PID.TID 0000.0001) %MON dynstat_wvel_max             =   4.3498787100966E-04
(PID.TID 0000.0001) %MON dynstat_wvel_min             =  -4.2603696949431E-04
(PID.TID 0000.0001) %MON dynstat_wvel_mean            =   1.8243053947802E-10
(PID.TID 0000.0001) %MON dynstat_wvel_sd              =   1.0462854733161E-05
(PID.TID 0000.0001) %MON dynstat_wvel_del2            =   4.2572302035414E-08
(PID.TID 0000.0001) %MON dynstat_theta_max            =   1.2000000000000E+00
(PID.TID 0000.0001) %MON dynstat_theta_min            =  -1.0000000000000E+00
(PID.TID 0000.0001) %MON dynstat_theta_mean           =   5.6532499845732E-01
(PID.TID 0000.0001) %MON dynstat_theta_sd             =   8.4902058563934E-01
(PID.TID 0000.0001) %MON dynstat_theta_del2           =   1.3210708848029E-06
(PID.TID 0000.0001) %MON dynstat_salt_max             =   3.4700000000000E+01
(PID.TID 0000.0001) %MON dynstat_salt_min             =   3.4000000000000E+01
(PID.TID 0000.0001) %MON dynstat_salt_mean            =   3.4498043760839E+01
(PID.TID 0000.0001) %MON dynstat_salt_sd              =   2.7014285346364E-01
(PID.TID 0000.0001) %MON dynstat_salt_del2            =   5.1779770908033E-07
(PID.TID 0000.0001) %MON advcfl_uvel_max              =   1.1220066010539E-03
(PID.TID 0000.0001) %MON advcfl_vvel_max              =   9.3419926361515E-04
(PID.TID 0000.0001) %MON advcfl_wvel_max              =   2.1749393550483E-03
(PID.TID 0000.0001) %MON advcfl_W_hf_max              =   2.1749393550483E-03
(PID.TID 0000.0001) %MON pe_b_mean                    =  -6.8255340134741E-01
(PID.TID 0000.0001) %MON ke_max                       =   3.8648146862377E-05
(PID.TID 0000.0001) %MON ke_mean                      =   5.8091038490720E-08
(PID.TID 0000.0001) %MON ke_vol                       =   4.6182950289031E+12
(PID.TID 0000.0001) // =======================================================
(PID.TID 0000.0001) // End MONITOR dynamic field statistics
(PID.TID 0000.0001) // =======================================================
(PID.TID 0000.0001) // =======================================================
(PID.TID 0000.0001) // Begin OBCS MONITOR field statistics
(PID.TID 0000.0001) // =======================================================
(PID.TID 0000.0001) %MON obc_N_vVel_max               =  -6.1145485143839E-08
(PID.TID 0000.0001) %MON obc_N_vVel_min               =  -6.1145485143841E-08
(PID.TID 0000.0001) %MON obc_N_vVel_mean              =  -6.1145485143841E-08
(PID.TID 0000.0001) %MON obc_N_vVel_sd                =  -1.5856104194942E-28
(PID.TID 0000.0001) %MON obc_N_vVel_Int               =  -4.0356020194935E+00
(PID.TID 0000.0001) // =======================================================
(PID.TID 0000.0001) // End OBCS MONITOR field statistics
(PID.TID 0000.0001) // =======================================================
 cg2d: Sum(rhs),rhsMax =   3.01090802887780E+00  4.53047705211721E+02
(PID.TID 0000.0001)      cg2d_init_res =   1.63113386615984E-06
(PID.TID 0000.0001)      cg2d_iters(min,last) =      -1      72
(PID.TID 0000.0001)      cg2d_last_res =   8.77062957287868E-12
(PID.TID 0000.0001) // =======================================================
(PID.TID 0000.0001) // Begin MONITOR dynamic field statistics
(PID.TID 0000.0001) // =======================================================
(PID.TID 0000.0001) %MON time_tsnumber                =                   764
(PID.TID 0000.0001) %MON time_secondsf                =   7.6400000000000E+04
(PID.TID 0000.0001) %MON dynstat_eta_max              =   5.7975873140159E+00
(PID.TID 0000.0001) %MON dynstat_eta_min              =  -1.4174740559711E+01
(PID.TID 0000.0001) %MON dynstat_eta_mean             =  -2.5260832834938E+00
(PID.TID 0000.0001) %MON dynstat_eta_sd               =   4.9416664697223E+00
(PID.TID 0000.0001) %MON dynstat_eta_del2             =   1.9058224162807E-01
(PID.TID 0000.0001) %MON dynstat_uvel_max             =   3.2740439783900E-03
(PID.TID 0000.0001) %MON dynstat_uvel_min             =  -1.1251435396295E-02
(PID.TID 0000.0001) %MON dynstat_uvel_mean            =  -1.1294689918419E-09
(PID.TID 0000.0001) %MON dynstat_uvel_sd              =   2.9715252135827E-04
(PID.TID 0000.0001) %MON dynstat_uvel_del2            =   5.0536073982751E-07
(PID.TID 0000.0001) %MON dynstat_vvel_max             =   9.3610999287932E-03
(PID.TID 0000.0001) %MON dynstat_vvel_min             =  -3.1819656677685E-03
(PID.TID 0000.0001) %MON dynstat_vvel_mean            =  -4.5843590886270E-08
(PID.TID 0000.0001) %MON dynstat_vvel_sd              =   1.7357840073043E-04
(PID.TID 0000.0001) %MON dynstat_vvel_del2            =   4.7333836722226E-07
(PID.TID 0000.0001) %MON dynstat_wvel_max             =   4.3635547573130E-04
(PID.TID 0000.0001) %MON dynstat_wvel_min             =  -4.2749675031302E-04
(PID.TID 0000.0001) %MON dynstat_wvel_mean            =   1.8231326034991E-10
(PID.TID 0000.0001) %MON dynstat_wvel_sd              =   1.0547549921060E-05
(PID.TID 0000.0001) %MON dynstat_wvel_del2            =   4.3244151958361E-08
(PID.TID 0000.0001) %MON dynstat_theta_max            =   1.2000000000000E+00
(PID.TID 0000.0001) %MON dynstat_theta_min            =  -1.0000000000000E+00
(PID.TID 0000.0001) %MON dynstat_theta_mean           =   5.6532466274719E-01
(PID.TID 0000.0001) %MON dynstat_theta_sd             =   8.4902046201864E-01
(PID.TID 0000.0001) %MON dynstat_theta_del2           =   1.3234553520640E-06
(PID.TID 0000.0001) %MON dynstat_salt_max             =   3.4700000000000E+01
(PID.TID 0000.0001) %MON dynstat_salt_min             =   3.4000000000000E+01
(PID.TID 0000.0001) %MON dynstat_salt_mean            =   3.4498043627311E+01
(PID.TID 0000.0001) %MON dynstat_salt_sd              =   2.7014280897374E-01
(PID.TID 0000.0001) %MON dynstat_salt_del2            =   5.1879747454711E-07
(PID.TID 0000.0001) %MON advcfl_uvel_max              =   1.1251435396295E-03
(PID.TID 0000.0001) %MON advcfl_vvel_max              =   9.3610999287932E-04
(PID.TID 0000.0001) %MON advcfl_wvel_max              =   2.1817773786565E-03
(PID.TID 0000.0001) %MON advcfl_W_hf_max              =   2.1817773786565E-03
(PID.TID 0000.0001) %MON pe_b_mean                    =  -6.8255253087036E-01
(PID.TID 0000.0001) %MON ke_max                       =   3.8863788148358E-05
(PID.TID 0000.0001) %MON ke_mean                      =   5.8384125796726E-08
(PID.TID 0000.0001) %MON ke_vol                       =   4.6182950470856E+12
(PID.TID 0000.0001) // =======================================================
(PID.TID 0000.0001) // End MONITOR dynamic field statistics
(PID.TID 0000.0001) // =======================================================
(PID.TID 0000.0001) // =======================================================
(PID.TID 0000.0001) // Begin OBCS MONITOR field statistics
(PID.TID 0000.0001) // =======================================================
(PID.TID 0000.0001) %MON obc_N_vVel_max               =  -6.1054673406403E-08
(PID.TID 0000.0001) %MON obc_N_vVel_min               =  -6.1054673406404E-08
(PID.TID 0000.0001) %MON obc_N_vVel_mean              =  -6.1054673406403E-08
(PID.TID 0000.0001) %MON obc_N_vVel_sd                =  -3.8654184355830E-29
(PID.TID 0000.0001) %MON obc_N_vVel_Int               =  -4.0296084448226E+00
(PID.TID 0000.0001) // =======================================================
(PID.TID 0000.0001) // End OBCS MONITOR field statistics
(PID.TID 0000.0001) // =======================================================
 cg2d: Sum(rhs),rhsMax =   3.01090442544491E+00  4.53047696724086E+02
(PID.TID 0000.0001)      cg2d_init_res =   1.64121313985068E-06
(PID.TID 0000.0001)      cg2d_iters(min,last) =      -1      72
(PID.TID 0000.0001)      cg2d_last_res =   8.79264762317388E-12
(PID.TID 0000.0001) // =======================================================
(PID.TID 0000.0001) // Begin MONITOR dynamic field statistics
(PID.TID 0000.0001) // =======================================================
(PID.TID 0000.0001) %MON time_tsnumber                =                   765
(PID.TID 0000.0001) %MON time_secondsf                =   7.6500000000000E+04
(PID.TID 0000.0001) %MON dynstat_eta_max              =   5.7975901120541E+00
(PID.TID 0000.0001) %MON dynstat_eta_min              =  -1.4174735721146E+01
(PID.TID 0000.0001) %MON dynstat_eta_mean             =  -2.5260802129707E+00
(PID.TID 0000.0001) %MON dynstat_eta_sd               =   4.9416655292378E+00
(PID.TID 0000.0001) %MON dynstat_eta_del2             =   1.9058224793490E-01
(PID.TID 0000.0001) %MON dynstat_uvel_max             =   3.2791804973282E-03
(PID.TID 0000.0001) %MON dynstat_uvel_min             =  -1.1282873305815E-02
(PID.TID 0000.0001) %MON dynstat_uvel_mean            =  -1.1276357572196E-09
(PID.TID 0000.0001) %MON dynstat_uvel_sd              =   2.9791856565940E-04
(PID.TID 0000.0001) %MON dynstat_uvel_del2            =   5.0647628031921E-07
(PID.TID 0000.0001) %MON dynstat_vvel_max             =   9.3802336943842E-03
(PID.TID 0000.0001) %MON dynstat_vvel_min             =  -3.1904766156732E-03
(PID.TID 0000.0001) %MON dynstat_vvel_mean            =  -4.5800408614735E-08
(PID.TID 0000.0001) %MON dynstat_vvel_sd              =   1.7398886040851E-04
(PID.TID 0000.0001) %MON dynstat_vvel_del2            =   4.7445430750331E-07
(PID.TID 0000.0001) %MON dynstat_wvel_max             =   4.3772611148863E-04
(PID.TID 0000.0001) %MON dynstat_wvel_min             =  -4.2896150475540E-04
(PID.TID 0000.0001) %MON dynstat_wvel_mean            =   1.8219874765783E-10
(PID.TID 0000.0001) %MON dynstat_wvel_sd              =   1.0631845552261E-05
(PID.TID 0000.0001) %MON dynstat_wvel_del2            =   4.3912824990240E-08
(PID.TID 0000.0001) %MON dynstat_theta_max            =   1.2000000000000E+00
(PID.TID 0000.0001) %MON dynstat_theta_min            =  -1.0000000000000E+00
(PID.TID 0000.0001) %MON dynstat_theta_mean           =   5.6532432654017E-01
(PID.TID 0000.0001) %MON dynstat_theta_sd             =   8.4902033805151E-01
(PID.TID 0000.0001) %MON dynstat_theta_del2           =   1.3258472962752E-06
(PID.TID 0000.0001) %MON dynstat_salt_max             =   3.4700000000000E+01
(PID.TID 0000.0001) %MON dynstat_salt_min             =   3.4000000000000E+01
(PID.TID 0000.0001) %MON dynstat_salt_mean            =   3.4498043493581E+01
(PID.TID 0000.0001) %MON dynstat_salt_sd              =   2.7014276434994E-01
(PID.TID 0000.0001) %MON dynstat_salt_del2            =   5.1980012984093E-07
(PID.TID 0000.0001) %MON advcfl_uvel_max              =   1.1282873305815E-03
(PID.TID 0000.0001) %MON advcfl_vvel_max              =   9.3802336943842E-04
(PID.TID 0000.0001) %MON advcfl_wvel_max              =   2.1886305574432E-03
(PID.TID 0000.0001) %MON advcfl_W_hf_max              =   2.1886305574432E-03
(PID.TID 0000.0001) %MON pe_b_mean                    =  -6.8255165888558E-01
(PID.TID 0000.0001) %MON ke_max                       =   3.9080504820254E-05
(PID.TID 0000.0001) %MON ke_mean                      =   5.8679095530164E-08
(PID.TID 0000.0001) %MON ke_vol                       =   4.6182950652960E+12
(PID.TID 0000.0001) // =======================================================
(PID.TID 0000.0001) // End MONITOR dynamic field statistics
(PID.TID 0000.0001) // =======================================================
(PID.TID 0000.0001) // =======================================================
(PID.TID 0000.0001) // Begin OBCS MONITOR field statistics
(PID.TID 0000.0001) // =======================================================
(PID.TID 0000.0001) %MON obc_N_vVel_max               =  -6.1007234941277E-08
(PID.TID 0000.0001) %MON obc_N_vVel_min               =  -6.1007234941279E-08
(PID.TID 0000.0001) %MON obc_N_vVel_mean              =  -6.1007234941279E-08
(PID.TID 0000.0001) %MON obc_N_vVel_sd                =  -3.0450030941531E-28
(PID.TID 0000.0001) %MON obc_N_vVel_Int               =  -4.0264775061244E+00
(PID.TID 0000.0001) // =======================================================
(PID.TID 0000.0001) // End OBCS MONITOR field statistics
(PID.TID 0000.0001) // =======================================================
 cg2d: Sum(rhs),rhsMax =   3.01090081615654E+00  4.53047688247708E+02
(PID.TID 0000.0001)      cg2d_init_res =   1.65104745192185E-06
(PID.TID 0000.0001)      cg2d_iters(min,last) =      -1      72
(PID.TID 0000.0001)      cg2d_last_res =   8.81350429901384E-12
(PID.TID 0000.0001) // =======================================================
(PID.TID 0000.0001) // Begin MONITOR dynamic field statistics
(PID.TID 0000.0001) // =======================================================
(PID.TID 0000.0001) %MON time_tsnumber                =                   766
(PID.TID 0000.0001) %MON time_secondsf                =   7.6600000000000E+04
(PID.TID 0000.0001) %MON dynstat_eta_max              =   5.7975929122041E+00
(PID.TID 0000.0001) %MON dynstat_eta_min              =  -1.4174730871214E+01
(PID.TID 0000.0001) %MON dynstat_eta_mean             =  -2.5260771375979E+00
(PID.TID 0000.0001) %MON dynstat_eta_sd               =   4.9416645873915E+00
(PID.TID 0000.0001) %MON dynstat_eta_del2             =   1.9058225425990E-01
(PID.TID 0000.0001) %MON dynstat_uvel_max             =   3.2843191515983E-03
(PID.TID 0000.0001) %MON dynstat_uvel_min             =  -1.1314379792897E-02
(PID.TID 0000.0001) %MON dynstat_uvel_mean            =  -1.1258992547214E-09
(PID.TID 0000.0001) %MON dynstat_uvel_sd              =   2.9868761441450E-04
(PID.TID 0000.0001) %MON dynstat_uvel_del2            =   5.0759507835124E-07
(PID.TID 0000.0001) %MON dynstat_vvel_max             =   9.3993939115904E-03
(PID.TID 0000.0001) %MON dynstat_vvel_min             =  -3.1990015417867E-03
(PID.TID 0000.0001) %MON dynstat_vvel_mean            =  -4.5802526912577E-08
(PID.TID 0000.0001) %MON dynstat_vvel_sd              =   1.7439944505655E-04
(PID.TID 0000.0001) %MON dynstat_vvel_del2            =   4.7555507378554E-07
(PID.TID 0000.0001) %MON dynstat_wvel_max             =   4.3909978345960E-04
(PID.TID 0000.0001) %MON dynstat_wvel_min             =  -4.3043124008203E-04
(PID.TID 0000.0001) %MON dynstat_wvel_mean            =   1.8209678596119E-10
(PID.TID 0000.0001) %MON dynstat_wvel_sd              =   1.0708805298128E-05
(PID.TID 0000.0001) %MON dynstat_wvel_del2            =   4.4522320585199E-08
(PID.TID 0000.0001) %MON dynstat_theta_max            =   1.2000000000000E+00
(PID.TID 0000.0001) %MON dynstat_theta_min            =  -1.0000000000000E+00
(PID.TID 0000.0001) %MON dynstat_theta_mean           =   5.6532398984337E-01
(PID.TID 0000.0001) %MON dynstat_theta_sd             =   8.4902021373775E-01
(PID.TID 0000.0001) %MON dynstat_theta_del2           =   1.3282648912895E-06
(PID.TID 0000.0001) %MON dynstat_salt_max             =   3.4700000000000E+01
(PID.TID 0000.0001) %MON dynstat_salt_min             =   3.4000000000000E+01
(PID.TID 0000.0001) %MON dynstat_salt_mean            =   3.4498043359650E+01
(PID.TID 0000.0001) %MON dynstat_salt_sd              =   2.7014271959215E-01
(PID.TID 0000.0001) %MON dynstat_salt_del2            =   5.2081042921087E-07
(PID.TID 0000.0001) %MON advcfl_uvel_max              =   1.1314379792897E-03
(PID.TID 0000.0001) %MON advcfl_vvel_max              =   9.3993939115904E-04
(PID.TID 0000.0001) %MON advcfl_wvel_max              =   2.1954989172980E-03
(PID.TID 0000.0001) %MON advcfl_W_hf_max              =   2.1954989172980E-03
(PID.TID 0000.0001) %MON pe_b_mean                    =  -6.8255078537818E-01
(PID.TID 0000.0001) %MON ke_max                       =   3.9298301090406E-05
(PID.TID 0000.0001) %MON ke_mean                      =   5.8975711843951E-08
(PID.TID 0000.0001) %MON ke_vol                       =   4.6182950835350E+12
(PID.TID 0000.0001) // =======================================================
(PID.TID 0000.0001) // End MONITOR dynamic field statistics
(PID.TID 0000.0001) // =======================================================
(PID.TID 0000.0001) // =======================================================
(PID.TID 0000.0001) // Begin OBCS MONITOR field statistics
(PID.TID 0000.0001) // =======================================================
(PID.TID 0000.0001) %MON obc_N_vVel_max               =  -6.1002362615759E-08
(PID.TID 0000.0001) %MON obc_N_vVel_min               =  -6.1002362615760E-08
(PID.TID 0000.0001) %MON obc_N_vVel_mean              =  -6.1002362615759E-08
(PID.TID 0000.0001) %MON obc_N_vVel_sd                =   1.3788236948873E-14
(PID.TID 0000.0001) %MON obc_N_vVel_Int               =  -4.0261559326401E+00
(PID.TID 0000.0001) // =======================================================
(PID.TID 0000.0001) // End OBCS MONITOR field statistics
(PID.TID 0000.0001) // =======================================================
 cg2d: Sum(rhs),rhsMax =   3.01089720093103E+00  4.53047679783280E+02
(PID.TID 0000.0001)      cg2d_init_res =   1.66003331554381E-06
(PID.TID 0000.0001)      cg2d_iters(min,last) =      -1      72
(PID.TID 0000.0001)      cg2d_last_res =   8.83343972858566E-12
(PID.TID 0000.0001) // =======================================================
(PID.TID 0000.0001) // Begin MONITOR dynamic field statistics
(PID.TID 0000.0001) // =======================================================
(PID.TID 0000.0001) %MON time_tsnumber                =                   767
(PID.TID 0000.0001) %MON time_secondsf                =   7.6700000000000E+04
(PID.TID 0000.0001) %MON dynstat_eta_max              =   5.7975957144067E+00
(PID.TID 0000.0001) %MON dynstat_eta_min              =  -1.4174726009658E+01
(PID.TID 0000.0001) %MON dynstat_eta_mean             =  -2.5260740573107E+00
(PID.TID 0000.0001) %MON dynstat_eta_sd               =   4.9416636441697E+00
(PID.TID 0000.0001) %MON dynstat_eta_del2             =   1.9058226060332E-01
(PID.TID 0000.0001) %MON dynstat_uvel_max             =   3.2894598884141E-03
(PID.TID 0000.0001) %MON dynstat_uvel_min             =  -1.1345954910696E-02
(PID.TID 0000.0001) %MON dynstat_uvel_mean            =  -1.1243151784156E-09
(PID.TID 0000.0001) %MON dynstat_uvel_sd              =   2.9945967027256E-04
(PID.TID 0000.0001) %MON dynstat_uvel_del2            =   5.0871714429538E-07
(PID.TID 0000.0001) %MON dynstat_vvel_max             =   9.4185805585034E-03
(PID.TID 0000.0001) %MON dynstat_vvel_min             =  -3.2075404864065E-03
(PID.TID 0000.0001) %MON dynstat_vvel_mean            =  -4.5846807987753E-08
(PID.TID 0000.0001) %MON dynstat_vvel_sd              =   1.7480889931694E-04
(PID.TID 0000.0001) %MON dynstat_vvel_del2            =   4.7662723385219E-07
(PID.TID 0000.0001) %MON dynstat_wvel_max             =   4.4047649684993E-04
(PID.TID 0000.0001) %MON dynstat_wvel_min             =  -4.3190596358915E-04
(PID.TID 0000.0001) %MON dynstat_wvel_mean            =   1.8201671461567E-10
(PID.TID 0000.0001) %MON dynstat_wvel_sd              =   1.0772430192870E-05
(PID.TID 0000.0001) %MON dynstat_wvel_del2            =   4.5024674621255E-08
(PID.TID 0000.0001) %MON dynstat_theta_max            =   1.2000000000000E+00
(PID.TID 0000.0001) %MON dynstat_theta_min            =  -1.0000000000000E+00
(PID.TID 0000.0001) %MON dynstat_theta_mean           =   5.6532365266266E-01
(PID.TID 0000.0001) %MON dynstat_theta_sd             =   8.4902008907476E-01
(PID.TID 0000.0001) %MON dynstat_theta_del2           =   1.3307239494408E-06
(PID.TID 0000.0001) %MON dynstat_salt_max             =   3.4700000000000E+01
(PID.TID 0000.0001) %MON dynstat_salt_min             =   3.4000000000000E+01
(PID.TID 0000.0001) %MON dynstat_salt_mean            =   3.4498043225522E+01
(PID.TID 0000.0001) %MON dynstat_salt_sd              =   2.7014267469951E-01
(PID.TID 0000.0001) %MON dynstat_salt_del2            =   5.2183238210551E-07
(PID.TID 0000.0001) %MON advcfl_uvel_max              =   1.1345954910696E-03
(PID.TID 0000.0001) %MON advcfl_vvel_max              =   9.4185805585034E-04
(PID.TID 0000.0001) %MON advcfl_wvel_max              =   2.2023824842497E-03
(PID.TID 0000.0001) %MON advcfl_W_hf_max              =   2.2023824842497E-03
(PID.TID 0000.0001) %MON pe_b_mean                    =  -6.8254991033382E-01
(PID.TID 0000.0001) %MON ke_max                       =   3.9517181178449E-05
(PID.TID 0000.0001) %MON ke_mean                      =   5.9273763030467E-08
(PID.TID 0000.0001) %MON ke_vol                       =   4.6182951018027E+12
(PID.TID 0000.0001) // =======================================================
(PID.TID 0000.0001) // End MONITOR dynamic field statistics
(PID.TID 0000.0001) // =======================================================
(PID.TID 0000.0001) // =======================================================
(PID.TID 0000.0001) // Begin OBCS MONITOR field statistics
(PID.TID 0000.0001) // =======================================================
(PID.TID 0000.0001) %MON obc_N_vVel_max               =  -6.1038028076599E-08
(PID.TID 0000.0001) %MON obc_N_vVel_min               =  -6.1038028076600E-08
(PID.TID 0000.0001) %MON obc_N_vVel_mean              =  -6.1038028076599E-08
(PID.TID 0000.0001) %MON obc_N_vVel_sd                =   6.4047456679788E-15
(PID.TID 0000.0001) %MON obc_N_vVel_Int               =  -4.0285098530555E+00
(PID.TID 0000.0001) // =======================================================
(PID.TID 0000.0001) // End OBCS MONITOR field statistics
(PID.TID 0000.0001) // =======================================================
 cg2d: Sum(rhs),rhsMax =   3.01089357968932E+00  4.53047671331551E+02
(PID.TID 0000.0001)      cg2d_init_res =   1.66764289612228E-06
(PID.TID 0000.0001)      cg2d_iters(min,last) =      -1      72
(PID.TID 0000.0001)      cg2d_last_res =   8.85246018412974E-12
(PID.TID 0000.0001) // =======================================================
(PID.TID 0000.0001) // Begin MONITOR dynamic field statistics
(PID.TID 0000.0001) // =======================================================
(PID.TID 0000.0001) %MON time_tsnumber                =                   768
(PID.TID 0000.0001) %MON time_secondsf                =   7.6800000000000E+04
(PID.TID 0000.0001) %MON dynstat_eta_max              =   5.7975985185925E+00
(PID.TID 0000.0001) %MON dynstat_eta_min              =  -1.4174721136231E+01
(PID.TID 0000.0001) %MON dynstat_eta_mean             =  -2.5260709720470E+00
(PID.TID 0000.0001) %MON dynstat_eta_sd               =   4.9416626995580E+00
(PID.TID 0000.0001) %MON dynstat_eta_del2             =   1.9058226696529E-01
(PID.TID 0000.0001) %MON dynstat_uvel_max             =   3.2946026551866E-03
(PID.TID 0000.0001) %MON dynstat_uvel_min             =  -1.1377598711661E-02
(PID.TID 0000.0001) %MON dynstat_uvel_mean            =  -1.1229374277474E-09
(PID.TID 0000.0001) %MON dynstat_uvel_sd              =   3.0023473526886E-04
(PID.TID 0000.0001) %MON dynstat_uvel_del2            =   5.0984248242069E-07
(PID.TID 0000.0001) %MON dynstat_vvel_max             =   9.4377936129910E-03
(PID.TID 0000.0001) %MON dynstat_vvel_min             =  -3.2160934897529E-03
(PID.TID 0000.0001) %MON dynstat_vvel_mean            =  -4.5928984813380E-08
(PID.TID 0000.0001) %MON dynstat_vvel_sd              =   1.7521622463914E-04
(PID.TID 0000.0001) %MON dynstat_vvel_del2            =   4.7766037294554E-07
(PID.TID 0000.0001) %MON dynstat_wvel_max             =   4.4185625688706E-04
(PID.TID 0000.0001) %MON dynstat_wvel_min             =  -4.3338568254008E-04
(PID.TID 0000.0001) %MON dynstat_wvel_mean            =   1.8196673593880E-10
(PID.TID 0000.0001) %MON dynstat_wvel_sd              =   1.0818097715302E-05
(PID.TID 0000.0001) %MON dynstat_wvel_del2            =   4.5382936608452E-08
(PID.TID 0000.0001) %MON dynstat_theta_max            =   1.2000000000000E+00
(PID.TID 0000.0001) %MON dynstat_theta_min            =  -1.0000000000000E+00
(PID.TID 0000.0001) %MON dynstat_theta_mean           =   5.6532331500256E-01
(PID.TID 0000.0001) %MON dynstat_theta_sd             =   8.4901996406069E-01
(PID.TID 0000.0001) %MON dynstat_theta_del2           =   1.3332366200505E-06
(PID.TID 0000.0001) %MON dynstat_salt_max             =   3.4700000000000E+01
(PID.TID 0000.0001) %MON dynstat_salt_min             =   3.4000000000000E+01
(PID.TID 0000.0001) %MON dynstat_salt_mean            =   3.4498043091196E+01
(PID.TID 0000.0001) %MON dynstat_salt_sd              =   2.7014262967129E-01
(PID.TID 0000.0001) %MON dynstat_salt_del2            =   5.2286912235816E-07
(PID.TID 0000.0001) %MON advcfl_uvel_max              =   1.1377598711661E-03
(PID.TID 0000.0001) %MON advcfl_vvel_max              =   9.4377936129910E-04
(PID.TID 0000.0001) %MON advcfl_wvel_max              =   2.2092812844353E-03
(PID.TID 0000.0001) %MON advcfl_W_hf_max              =   2.2092812844353E-03
(PID.TID 0000.0001) %MON pe_b_mean                    =  -6.8254903373877E-01
(PID.TID 0000.0001) %MON ke_max                       =   3.9737149311269E-05
(PID.TID 0000.0001) %MON ke_mean                      =   5.9573080177798E-08
(PID.TID 0000.0001) %MON ke_vol                       =   4.6182951200996E+12
(PID.TID 0000.0001) // =======================================================
(PID.TID 0000.0001) // End MONITOR dynamic field statistics
(PID.TID 0000.0001) // =======================================================
(PID.TID 0000.0001) // =======================================================
(PID.TID 0000.0001) // Begin OBCS MONITOR field statistics
(PID.TID 0000.0001) // =======================================================
(PID.TID 0000.0001) %MON obc_N_vVel_max               =  -6.1111044934553E-08
(PID.TID 0000.0001) %MON obc_N_vVel_min               =  -6.1111044934556E-08
(PID.TID 0000.0001) %MON obc_N_vVel_mean              =  -6.1111044934556E-08
(PID.TID 0000.0001) %MON obc_N_vVel_sd                =  -3.2579955385628E-28
(PID.TID 0000.0001) %MON obc_N_vVel_Int               =  -4.0333289656807E+00
(PID.TID 0000.0001) // =======================================================
(PID.TID 0000.0001) // End OBCS MONITOR field statistics
(PID.TID 0000.0001) // =======================================================
 cg2d: Sum(rhs),rhsMax =   3.01088995235634E+00  4.53047662893269E+02
(PID.TID 0000.0001)      cg2d_init_res =   1.67349180761945E-06
(PID.TID 0000.0001)      cg2d_iters(min,last) =      -1      72
(PID.TID 0000.0001)      cg2d_last_res =   8.87078556255222E-12
(PID.TID 0000.0001) // =======================================================
(PID.TID 0000.0001) // Begin MONITOR dynamic field statistics
(PID.TID 0000.0001) // =======================================================
(PID.TID 0000.0001) %MON time_tsnumber                =                   769
(PID.TID 0000.0001) %MON time_secondsf                =   7.6900000000000E+04
(PID.TID 0000.0001) %MON dynstat_eta_max              =   5.7976013246754E+00
(PID.TID 0000.0001) %MON dynstat_eta_min              =  -1.4174716250694E+01
(PID.TID 0000.0001) %MON dynstat_eta_mean             =  -2.5260678817479E+00
(PID.TID 0000.0001) %MON dynstat_eta_sd               =   4.9416617535423E+00
(PID.TID 0000.0001) %MON dynstat_eta_del2             =   1.9058227334596E-01
(PID.TID 0000.0001) %MON dynstat_uvel_max             =   3.2997473991578E-03
(PID.TID 0000.0001) %MON dynstat_uvel_min             =  -1.1409311247662E-02
(PID.TID 0000.0001) %MON dynstat_uvel_mean            =  -1.1218144231087E-09
(PID.TID 0000.0001) %MON dynstat_uvel_sd              =   3.0101281081442E-04
(PID.TID 0000.0001) %MON dynstat_uvel_del2            =   5.1097109042426E-07
(PID.TID 0000.0001) %MON dynstat_vvel_max             =   9.4570330522628E-03
(PID.TID 0000.0001) %MON dynstat_vvel_min             =  -3.2246605921307E-03
(PID.TID 0000.0001) %MON dynstat_vvel_mean            =  -4.6043836731980E-08
(PID.TID 0000.0001) %MON dynstat_vvel_sd              =   1.7562075881851E-04
(PID.TID 0000.0001) %MON dynstat_vvel_del2            =   4.7864794400037E-07
(PID.TID 0000.0001) %MON dynstat_wvel_max             =   4.4323906882082E-04
(PID.TID 0000.0001) %MON dynstat_wvel_min             =  -4.3487040427951E-04
(PID.TID 0000.0001) %MON dynstat_wvel_mean            =   1.8195384302640E-10
(PID.TID 0000.0001) %MON dynstat_wvel_sd              =   1.0842862397432E-05
(PID.TID 0000.0001) %MON dynstat_wvel_del2            =   4.5573034661075E-08
(PID.TID 0000.0001) %MON dynstat_theta_max            =   1.2000000000000E+00
(PID.TID 0000.0001) %MON dynstat_theta_min            =  -1.0000000000000E+00
(PID.TID 0000.0001) %MON dynstat_theta_mean           =   5.6532297686603E-01
(PID.TID 0000.0001) %MON dynstat_theta_sd             =   8.4901983869778E-01
(PID.TID 0000.0001) %MON dynstat_theta_del2           =   1.3358104554101E-06
(PID.TID 0000.0001) %MON dynstat_salt_max             =   3.4700000000000E+01
(PID.TID 0000.0001) %MON dynstat_salt_min             =   3.4000000000000E+01
(PID.TID 0000.0001) %MON dynstat_salt_mean            =   3.4498042956673E+01
(PID.TID 0000.0001) %MON dynstat_salt_sd              =   2.7014258450818E-01
(PID.TID 0000.0001) %MON dynstat_salt_del2            =   5.2392269946371E-07
(PID.TID 0000.0001) %MON advcfl_uvel_max              =   1.1409311247662E-03
(PID.TID 0000.0001) %MON advcfl_vvel_max              =   9.4570330522628E-04
(PID.TID 0000.0001) %MON advcfl_wvel_max              =   2.2161953441041E-03
(PID.TID 0000.0001) %MON advcfl_W_hf_max              =   2.2161953441041E-03
(PID.TID 0000.0001) %MON pe_b_mean                    =  -6.8254815557996E-01
(PID.TID 0000.0001) %MON ke_max                       =   3.9958209723574E-05
(PID.TID 0000.0001) %MON ke_mean                      =   5.9873551673167E-08
(PID.TID 0000.0001) %MON ke_vol                       =   4.6182951384260E+12
(PID.TID 0000.0001) // =======================================================
(PID.TID 0000.0001) // End MONITOR dynamic field statistics
(PID.TID 0000.0001) // =======================================================
(PID.TID 0000.0001) // =======================================================
(PID.TID 0000.0001) // Begin OBCS MONITOR field statistics
(PID.TID 0000.0001) // =======================================================
(PID.TID 0000.0001) %MON obc_N_vVel_max               =  -6.1217250237702E-08
(PID.TID 0000.0001) %MON obc_N_vVel_min               =  -6.1217250237704E-08
(PID.TID 0000.0001) %MON obc_N_vVel_mean              =  -6.1217250237702E-08
(PID.TID 0000.0001) %MON obc_N_vVel_sd                =   1.0281408527027E-14
(PID.TID 0000.0001) %MON obc_N_vVel_Int               =  -4.0403385156883E+00
(PID.TID 0000.0001) // =======================================================
(PID.TID 0000.0001) // End OBCS MONITOR field statistics
(PID.TID 0000.0001) // =======================================================
 cg2d: Sum(rhs),rhsMax =   3.01088631886701E+00  4.53047654469183E+02
(PID.TID 0000.0001)      cg2d_init_res =   1.67737417296754E-06
(PID.TID 0000.0001)      cg2d_iters(min,last) =      -1      72
(PID.TID 0000.0001)      cg2d_last_res =   8.88847887622098E-12
(PID.TID 0000.0001) // =======================================================
(PID.TID 0000.0001) // Begin MONITOR dynamic field statistics
(PID.TID 0000.0001) // =======================================================
(PID.TID 0000.0001) %MON time_tsnumber                =                   770
(PID.TID 0000.0001) %MON time_secondsf                =   7.7000000000000E+04
(PID.TID 0000.0001) %MON dynstat_eta_max              =   5.7976041325539E+00
(PID.TID 0000.0001) %MON dynstat_eta_min              =  -1.4174711352828E+01
(PID.TID 0000.0001) %MON dynstat_eta_mean             =  -2.5260647863631E+00
(PID.TID 0000.0001) %MON dynstat_eta_sd               =   4.9416608061151E+00
(PID.TID 0000.0001) %MON dynstat_eta_del2             =   1.9058227974566E-01
(PID.TID 0000.0001) %MON dynstat_uvel_max             =   3.3048940676128E-03
(PID.TID 0000.0001) %MON dynstat_uvel_min             =  -1.1441092569831E-02
(PID.TID 0000.0001) %MON dynstat_uvel_mean            =  -1.1209894402869E-09
(PID.TID 0000.0001) %MON dynstat_uvel_sd              =   3.0179389775077E-04
(PID.TID 0000.0001) %MON dynstat_uvel_del2            =   5.1210296036758E-07
(PID.TID 0000.0001) %MON dynstat_vvel_max             =   9.4762988530748E-03
(PID.TID 0000.0001) %MON dynstat_vvel_min             =  -3.2332418338115E-03
(PID.TID 0000.0001) %MON dynstat_vvel_mean            =  -4.6185392964251E-08
(PID.TID 0000.0001) %MON dynstat_vvel_sd              =   1.7602222398991E-04
(PID.TID 0000.0001) %MON dynstat_vvel_del2            =   4.7958776320844E-07
(PID.TID 0000.0001) %MON dynstat_wvel_max             =   4.4462493792036E-04
(PID.TID 0000.0001) %MON dynstat_wvel_min             =  -4.3636013610580E-04
(PID.TID 0000.0001) %MON dynstat_wvel_mean            =   1.8198351891481E-10
(PID.TID 0000.0001) %MON dynstat_wvel_sd              =   1.0845619737157E-05
(PID.TID 0000.0001) %MON dynstat_wvel_del2            =   4.5584740112451E-08
(PID.TID 0000.0001) %MON dynstat_theta_max            =   1.2000000000000E+00
(PID.TID 0000.0001) %MON dynstat_theta_min            =  -1.0000000000000E+00
(PID.TID 0000.0001) %MON dynstat_theta_mean           =   5.6532263825488E-01
(PID.TID 0000.0001) %MON dynstat_theta_sd             =   8.4901971298847E-01
(PID.TID 0000.0001) %MON dynstat_theta_del2           =   1.3384479154789E-06
(PID.TID 0000.0001) %MON dynstat_salt_max             =   3.4700000000000E+01
(PID.TID 0000.0001) %MON dynstat_salt_min             =   3.4000000000000E+01
(PID.TID 0000.0001) %MON dynstat_salt_mean            =   3.4498042821955E+01
(PID.TID 0000.0001) %MON dynstat_salt_sd              =   2.7014253921087E-01
(PID.TID 0000.0001) %MON dynstat_salt_del2            =   5.2499364303572E-07
(PID.TID 0000.0001) %MON advcfl_uvel_max              =   1.1441092569831E-03
(PID.TID 0000.0001) %MON advcfl_vvel_max              =   9.4762988530748E-04
(PID.TID 0000.0001) %MON advcfl_wvel_max              =   2.2231246896018E-03
(PID.TID 0000.0001) %MON advcfl_W_hf_max              =   2.2231246896018E-03
(PID.TID 0000.0001) %MON pe_b_mean                    =  -6.8254727584651E-01
(PID.TID 0000.0001) %MON ke_max                       =   4.0180366656706E-05
(PID.TID 0000.0001) %MON ke_mean                      =   6.0175132364614E-08
(PID.TID 0000.0001) %MON ke_vol                       =   4.6182951567824E+12
(PID.TID 0000.0001) // =======================================================
(PID.TID 0000.0001) // End MONITOR dynamic field statistics
(PID.TID 0000.0001) // =======================================================
(PID.TID 0000.0001) // =======================================================
(PID.TID 0000.0001) // Begin OBCS MONITOR field statistics
(PID.TID 0000.0001) // =======================================================
(PID.TID 0000.0001) %MON obc_N_vVel_max               =  -6.1351672782874E-08
(PID.TID 0000.0001) %MON obc_N_vVel_min               =  -6.1351672782876E-08
(PID.TID 0000.0001) %MON obc_N_vVel_mean              =  -6.1351672782874E-08
(PID.TID 0000.0001) %MON obc_N_vVel_sd                =   1.1682163181673E-14
(PID.TID 0000.0001) %MON obc_N_vVel_Int               =  -4.0492104036697E+00
(PID.TID 0000.0001) // =======================================================
(PID.TID 0000.0001) // End OBCS MONITOR field statistics
(PID.TID 0000.0001) // =======================================================
 cg2d: Sum(rhs),rhsMax =   3.01088267916413E+00  4.53047646060011E+02
(PID.TID 0000.0001)      cg2d_init_res =   1.67922453206297E-06
(PID.TID 0000.0001)      cg2d_iters(min,last) =      -1      72
(PID.TID 0000.0001)      cg2d_last_res =   8.90581587991598E-12
(PID.TID 0000.0001) // =======================================================
(PID.TID 0000.0001) // Begin MONITOR dynamic field statistics
(PID.TID 0000.0001) // =======================================================
(PID.TID 0000.0001) %MON time_tsnumber                =                   771
(PID.TID 0000.0001) %MON time_secondsf                =   7.7100000000000E+04
(PID.TID 0000.0001) %MON dynstat_eta_max              =   5.7976069421148E+00
(PID.TID 0000.0001) %MON dynstat_eta_min              =  -1.4174706442434E+01
(PID.TID 0000.0001) %MON dynstat_eta_mean             =  -2.5260616858485E+00
(PID.TID 0000.0001) %MON dynstat_eta_sd               =   4.9416598572676E+00
(PID.TID 0000.0001) %MON dynstat_eta_del2             =   1.9058228616446E-01
(PID.TID 0000.0001) %MON dynstat_uvel_max             =   3.3100426077635E-03
(PID.TID 0000.0001) %MON dynstat_uvel_min             =  -1.1472942728580E-02
(PID.TID 0000.0001) %MON dynstat_uvel_mean            =  -1.1204956834084E-09
(PID.TID 0000.0001) %MON dynstat_uvel_sd              =   3.0257799634916E-04
(PID.TID 0000.0001) %MON dynstat_uvel_del2            =   5.1323807774116E-07
(PID.TID 0000.0001) %MON dynstat_vvel_max             =   9.4955909916961E-03
(PID.TID 0000.0001) %MON dynstat_vvel_min             =  -3.2418372552625E-03
(PID.TID 0000.0001) %MON dynstat_vvel_mean            =  -4.6347142217579E-08
(PID.TID 0000.0001) %MON dynstat_vvel_sd              =   1.7642073997460E-04
(PID.TID 0000.0001) %MON dynstat_vvel_del2            =   4.8048211451146E-07
(PID.TID 0000.0001) %MON dynstat_wvel_max             =   4.4601386945623E-04
(PID.TID 0000.0001) %MON dynstat_wvel_min             =  -4.3785488539761E-04
(PID.TID 0000.0001) %MON dynstat_wvel_mean            =   1.8206015962988E-10
(PID.TID 0000.0001) %MON dynstat_wvel_sd              =   1.0827139411989E-05
(PID.TID 0000.0001) %MON dynstat_wvel_del2            =   4.5421896340462E-08
(PID.TID 0000.0001) %MON dynstat_theta_max            =   1.2000000000000E+00
(PID.TID 0000.0001) %MON dynstat_theta_min            =  -1.0000000000000E+00
(PID.TID 0000.0001) %MON dynstat_theta_mean           =   5.6532229916937E-01
(PID.TID 0000.0001) %MON dynstat_theta_sd             =   8.4901958692789E-01
(PID.TID 0000.0001) %MON dynstat_theta_del2           =   1.3411464219625E-06
(PID.TID 0000.0001) %MON dynstat_salt_max             =   3.4700000000000E+01
(PID.TID 0000.0001) %MON dynstat_salt_min             =   3.4000000000000E+01
(PID.TID 0000.0001) %MON dynstat_salt_mean            =   3.4498042687041E+01
(PID.TID 0000.0001) %MON dynstat_salt_sd              =   2.7014249377772E-01
(PID.TID 0000.0001) %MON dynstat_salt_del2            =   5.2608126061864E-07
(PID.TID 0000.0001) %MON advcfl_uvel_max              =   1.1472942728580E-03
(PID.TID 0000.0001) %MON advcfl_vvel_max              =   9.4955909916961E-04
(PID.TID 0000.0001) %MON advcfl_wvel_max              =   2.2300693472811E-03
(PID.TID 0000.0001) %MON advcfl_W_hf_max              =   2.2300693472811E-03
(PID.TID 0000.0001) %MON pe_b_mean                    =  -6.8254639452896E-01
(PID.TID 0000.0001) %MON ke_max                       =   4.0403624358747E-05
(PID.TID 0000.0001) %MON ke_mean                      =   6.0477846698190E-08
(PID.TID 0000.0001) %MON ke_vol                       =   4.6182951751690E+12
(PID.TID 0000.0001) // =======================================================
(PID.TID 0000.0001) // End MONITOR dynamic field statistics
(PID.TID 0000.0001) // =======================================================
(PID.TID 0000.0001) // =======================================================
(PID.TID 0000.0001) // Begin OBCS MONITOR field statistics
(PID.TID 0000.0001) // =======================================================
(PID.TID 0000.0001) %MON obc_N_vVel_max               =  -6.1508744846519E-08
(PID.TID 0000.0001) %MON obc_N_vVel_min               =  -6.1508744846520E-08
(PID.TID 0000.0001) %MON obc_N_vVel_mean              =  -6.1508744846519E-08
(PID.TID 0000.0001) %MON obc_N_vVel_sd                =   1.5485919901226E-14
(PID.TID 0000.0001) %MON obc_N_vVel_Int               =  -4.0595771598703E+00
(PID.TID 0000.0001) // =======================================================
(PID.TID 0000.0001) // End OBCS MONITOR field statistics
(PID.TID 0000.0001) // =======================================================
 cg2d: Sum(rhs),rhsMax =   3.01087903319683E+00  4.53047637666439E+02
(PID.TID 0000.0001)      cg2d_init_res =   1.67916900962537E-06
(PID.TID 0000.0001)      cg2d_iters(min,last) =      -1      72
(PID.TID 0000.0001)      cg2d_last_res =   8.92293877156290E-12
(PID.TID 0000.0001) // =======================================================
(PID.TID 0000.0001) // Begin MONITOR dynamic field statistics
(PID.TID 0000.0001) // =======================================================
(PID.TID 0000.0001) %MON time_tsnumber                =                   772
(PID.TID 0000.0001) %MON time_secondsf                =   7.7200000000000E+04
(PID.TID 0000.0001) %MON dynstat_eta_max              =   5.7976097532255E+00
(PID.TID 0000.0001) %MON dynstat_eta_min              =  -1.4174701519314E+01
(PID.TID 0000.0001) %MON dynstat_eta_mean             =  -2.5260585801652E+00
(PID.TID 0000.0001) %MON dynstat_eta_sd               =   4.9416589069957E+00
(PID.TID 0000.0001) %MON dynstat_eta_del2             =   1.9058229260260E-01
(PID.TID 0000.0001) %MON dynstat_uvel_max             =   3.3151929668520E-03
(PID.TID 0000.0001) %MON dynstat_uvel_min             =  -1.1504861773555E-02
(PID.TID 0000.0001) %MON dynstat_uvel_mean            =  -1.1203498153802E-09
(PID.TID 0000.0001) %MON dynstat_uvel_sd              =   3.0336510642897E-04
(PID.TID 0000.0001) %MON dynstat_uvel_del2            =   5.1437642333739E-07
(PID.TID 0000.0001) %MON dynstat_vvel_max             =   9.5149094437001E-03
(PID.TID 0000.0001) %MON dynstat_vvel_min             =  -3.2504468968844E-03
(PID.TID 0000.0001) %MON dynstat_vvel_mean            =  -4.6522290570970E-08
(PID.TID 0000.0001) %MON dynstat_vvel_sd              =   1.7681680213313E-04
(PID.TID 0000.0001) %MON dynstat_vvel_del2            =   4.8133746254471E-07
(PID.TID 0000.0001) %MON dynstat_wvel_max             =   4.4740586869629E-04
(PID.TID 0000.0001) %MON dynstat_wvel_min             =  -4.3935465949335E-04
(PID.TID 0000.0001) %MON dynstat_wvel_mean            =   1.8218639357226E-10
(PID.TID 0000.0001) %MON dynstat_wvel_sd              =   1.0789973582497E-05
(PID.TID 0000.0001) %MON dynstat_wvel_del2            =   4.5101993228383E-08
(PID.TID 0000.0001) %MON dynstat_theta_max            =   1.2000000000000E+00
(PID.TID 0000.0001) %MON dynstat_theta_min            =  -1.0000000000000E+00
(PID.TID 0000.0001) %MON dynstat_theta_mean           =   5.6532195960800E-01
(PID.TID 0000.0001) %MON dynstat_theta_sd             =   8.4901946051411E-01
(PID.TID 0000.0001) %MON dynstat_theta_del2           =   1.3438984632222E-06
(PID.TID 0000.0001) %MON dynstat_salt_max             =   3.4700000000000E+01
(PID.TID 0000.0001) %MON dynstat_salt_min             =   3.4000000000000E+01
(PID.TID 0000.0001) %MON dynstat_salt_mean            =   3.4498042551929E+01
(PID.TID 0000.0001) %MON dynstat_salt_sd              =   2.7014244820815E-01
(PID.TID 0000.0001) %MON dynstat_salt_del2            =   5.2718363902347E-07
(PID.TID 0000.0001) %MON advcfl_uvel_max              =   1.1504861773555E-03
(PID.TID 0000.0001) %MON advcfl_vvel_max              =   9.5149094437001E-04
(PID.TID 0000.0001) %MON advcfl_wvel_max              =   2.2370293434815E-03
(PID.TID 0000.0001) %MON advcfl_W_hf_max              =   2.2370293434815E-03
(PID.TID 0000.0001) %MON pe_b_mean                    =  -6.8254551161900E-01
(PID.TID 0000.0001) %MON ke_max                       =   4.0627987083720E-05
(PID.TID 0000.0001) %MON ke_mean                      =   6.0781785630107E-08
(PID.TID 0000.0001) %MON ke_vol                       =   4.6182951935861E+12
(PID.TID 0000.0001) // =======================================================
(PID.TID 0000.0001) // End MONITOR dynamic field statistics
(PID.TID 0000.0001) // =======================================================
(PID.TID 0000.0001) // =======================================================
(PID.TID 0000.0001) // Begin OBCS MONITOR field statistics
(PID.TID 0000.0001) // =======================================================
(PID.TID 0000.0001) %MON obc_N_vVel_max               =  -6.1682498087444E-08
(PID.TID 0000.0001) %MON obc_N_vVel_min               =  -6.1682498087445E-08
(PID.TID 0000.0001) %MON obc_N_vVel_mean              =  -6.1682498087445E-08
(PID.TID 0000.0001) %MON obc_N_vVel_sd                =  -2.3665827156630E-28
(PID.TID 0000.0001) %MON obc_N_vVel_Int               =  -4.0710448737714E+00
(PID.TID 0000.0001) // =======================================================
(PID.TID 0000.0001) // End OBCS MONITOR field statistics
(PID.TID 0000.0001) // =======================================================
 cg2d: Sum(rhs),rhsMax =   3.01087538092351E+00  4.53047629289080E+02
(PID.TID 0000.0001)      cg2d_init_res =   1.67749473774956E-06
(PID.TID 0000.0001)      cg2d_iters(min,last) =      -1      72
(PID.TID 0000.0001)      cg2d_last_res =   8.94013772612063E-12
(PID.TID 0000.0001) // =======================================================
(PID.TID 0000.0001) // Begin MONITOR dynamic field statistics
(PID.TID 0000.0001) // =======================================================
(PID.TID 0000.0001) %MON time_tsnumber                =                   773
(PID.TID 0000.0001) %MON time_secondsf                =   7.7300000000000E+04
(PID.TID 0000.0001) %MON dynstat_eta_max              =   5.7976125657457E+00
(PID.TID 0000.0001) %MON dynstat_eta_min              =  -1.4174696583304E+01
(PID.TID 0000.0001) %MON dynstat_eta_mean             =  -2.5260554692820E+00
(PID.TID 0000.0001) %MON dynstat_eta_sd               =   4.9416579552976E+00
(PID.TID 0000.0001) %MON dynstat_eta_del2             =   1.9058229906029E-01
(PID.TID 0000.0001) %MON dynstat_uvel_max             =   3.3203450920123E-03
(PID.TID 0000.0001) %MON dynstat_uvel_min             =  -1.1536849753806E-02
(PID.TID 0000.0001) %MON dynstat_uvel_mean            =  -1.1205518398090E-09
(PID.TID 0000.0001) %MON dynstat_uvel_sd              =   3.0415522747562E-04
(PID.TID 0000.0001) %MON dynstat_uvel_del2            =   5.1551797471614E-07
(PID.TID 0000.0001) %MON dynstat_vvel_max             =   9.5342541839623E-03
(PID.TID 0000.0001) %MON dynstat_vvel_min             =  -3.2590707992739E-03
(PID.TID 0000.0001) %MON dynstat_vvel_mean            =  -4.6704004913215E-08
(PID.TID 0000.0001) %MON dynstat_vvel_sd              =   1.7721122682326E-04
(PID.TID 0000.0001) %MON dynstat_vvel_del2            =   4.8216380418474E-07
(PID.TID 0000.0001) %MON dynstat_wvel_max             =   4.4880094091915E-04
(PID.TID 0000.0001) %MON dynstat_wvel_min             =  -4.4085946573849E-04
(PID.TID 0000.0001) %MON dynstat_wvel_mean            =   1.8236313053856E-10
(PID.TID 0000.0001) %MON dynstat_wvel_sd              =   1.0738244730582E-05
(PID.TID 0000.0001) %MON dynstat_wvel_del2            =   4.4655082927492E-08
(PID.TID 0000.0001) %MON dynstat_theta_max            =   1.2000000000000E+00
(PID.TID 0000.0001) %MON dynstat_theta_min            =  -1.0000000000000E+00
(PID.TID 0000.0001) %MON dynstat_theta_mean           =   5.6532161956772E-01
(PID.TID 0000.0001) %MON dynstat_theta_sd             =   8.4901933375396E-01
(PID.TID 0000.0001) %MON dynstat_theta_del2           =   1.3466927462876E-06
(PID.TID 0000.0001) %MON dynstat_salt_max             =   3.4700000000000E+01
(PID.TID 0000.0001) %MON dynstat_salt_min             =   3.4000000000000E+01
(PID.TID 0000.0001) %MON dynstat_salt_mean            =   3.4498042416620E+01
(PID.TID 0000.0001) %MON dynstat_salt_sd              =   2.7014240250423E-01
(PID.TID 0000.0001) %MON dynstat_salt_del2            =   5.2829789416133E-07
(PID.TID 0000.0001) %MON advcfl_uvel_max              =   1.1536849753806E-03
(PID.TID 0000.0001) %MON advcfl_vvel_max              =   9.5342541839623E-04
(PID.TID 0000.0001) %MON advcfl_wvel_max              =   2.2440047045957E-03
(PID.TID 0000.0001) %MON advcfl_W_hf_max              =   2.2440047045957E-03
(PID.TID 0000.0001) %MON pe_b_mean                    =  -6.8254462710986E-01
(PID.TID 0000.0001) %MON ke_max                       =   4.0853459093449E-05
(PID.TID 0000.0001) %MON ke_mean                      =   6.1087097730984E-08
(PID.TID 0000.0001) %MON ke_vol                       =   4.6182952120338E+12
(PID.TID 0000.0001) // =======================================================
(PID.TID 0000.0001) // End MONITOR dynamic field statistics
(PID.TID 0000.0001) // =======================================================
(PID.TID 0000.0001) // =======================================================
(PID.TID 0000.0001) // Begin OBCS MONITOR field statistics
(PID.TID 0000.0001) // =======================================================
(PID.TID 0000.0001) %MON obc_N_vVel_max               =  -6.1866784343252E-08
(PID.TID 0000.0001) %MON obc_N_vVel_min               =  -6.1866784343254E-08
(PID.TID 0000.0001) %MON obc_N_vVel_mean              =  -6.1866784343254E-08
(PID.TID 0000.0001) %MON obc_N_vVel_sd                =  -1.6487192919119E-28
(PID.TID 0000.0001) %MON obc_N_vVel_Int               =  -4.0832077666547E+00
(PID.TID 0000.0001) // =======================================================
(PID.TID 0000.0001) // End OBCS MONITOR field statistics
(PID.TID 0000.0001) // =======================================================
 cg2d: Sum(rhs),rhsMax =   3.01087172231134E+00  4.53047620928472E+02
(PID.TID 0000.0001)      cg2d_init_res =   1.67462888403904E-06
(PID.TID 0000.0001)      cg2d_iters(min,last) =      -1      72
(PID.TID 0000.0001)      cg2d_last_res =   8.95758194552885E-12
(PID.TID 0000.0001) // =======================================================
(PID.TID 0000.0001) // Begin MONITOR dynamic field statistics
(PID.TID 0000.0001) // =======================================================
(PID.TID 0000.0001) %MON time_tsnumber                =                   774
(PID.TID 0000.0001) %MON time_secondsf                =   7.7400000000000E+04
(PID.TID 0000.0001) %MON dynstat_eta_max              =   5.7976153795132E+00
(PID.TID 0000.0001) %MON dynstat_eta_min              =  -1.4174691634246E+01
(PID.TID 0000.0001) %MON dynstat_eta_mean             =  -2.5260523531740E+00
(PID.TID 0000.0001) %MON dynstat_eta_sd               =   4.9416570021747E+00
(PID.TID 0000.0001) %MON dynstat_eta_del2             =   1.9058230553778E-01
(PID.TID 0000.0001) %MON dynstat_uvel_max             =   3.3254989304456E-03
(PID.TID 0000.0001) %MON dynstat_uvel_min             =  -1.1568906717467E-02
(PID.TID 0000.0001) %MON dynstat_uvel_mean            =  -1.1210878446813E-09
(PID.TID 0000.0001) %MON dynstat_uvel_sd              =   3.0494835876473E-04
(PID.TID 0000.0001) %MON dynstat_uvel_del2            =   5.1666270840854E-07
(PID.TID 0000.0001) %MON dynstat_vvel_max             =   9.5536251868609E-03
(PID.TID 0000.0001) %MON dynstat_vvel_min             =  -3.2677090031230E-03
(PID.TID 0000.0001) %MON dynstat_vvel_mean            =  -4.6885647884561E-08
(PID.TID 0000.0001) %MON dynstat_vvel_sd              =   1.7760506989843E-04
(PID.TID 0000.0001) %MON dynstat_vvel_del2            =   4.8297372006840E-07
(PID.TID 0000.0001) %MON dynstat_wvel_max             =   4.5019909140749E-04
(PID.TID 0000.0001) %MON dynstat_wvel_min             =  -4.4236931154627E-04
(PID.TID 0000.0001) %MON dynstat_wvel_mean            =   1.8258979768484E-10
(PID.TID 0000.0001) %MON dynstat_wvel_sd              =   1.0677317428882E-05
(PID.TID 0000.0001) %MON dynstat_wvel_del2            =   4.4121956246951E-08
(PID.TID 0000.0001) %MON dynstat_theta_max            =   1.2000000000000E+00
(PID.TID 0000.0001) %MON dynstat_theta_min            =  -1.0000000000000E+00
(PID.TID 0000.0001) %MON dynstat_theta_mean           =   5.6532127904395E-01
(PID.TID 0000.0001) %MON dynstat_theta_sd             =   8.4901920665907E-01
(PID.TID 0000.0001) %MON dynstat_theta_del2           =   1.3495154754265E-06
(PID.TID 0000.0001) %MON dynstat_salt_max             =   3.4700000000000E+01
(PID.TID 0000.0001) %MON dynstat_salt_min             =   3.4000000000000E+01
(PID.TID 0000.0001) %MON dynstat_salt_mean            =   3.4498042281111E+01
(PID.TID 0000.0001) %MON dynstat_salt_sd              =   2.7014235666958E-01
(PID.TID 0000.0001) %MON dynstat_salt_del2            =   5.2942043289594E-07
(PID.TID 0000.0001) %MON advcfl_uvel_max              =   1.1568906717467E-03
(PID.TID 0000.0001) %MON advcfl_vvel_max              =   9.5536251868609E-04
(PID.TID 0000.0001) %MON advcfl_wvel_max              =   2.2509954570375E-03
(PID.TID 0000.0001) %MON advcfl_W_hf_max              =   2.2509954570375E-03
(PID.TID 0000.0001) %MON pe_b_mean                    =  -6.8254374099628E-01
(PID.TID 0000.0001) %MON ke_max                       =   4.1080044654115E-05
(PID.TID 0000.0001) %MON ke_mean                      =   6.1393975367377E-08
(PID.TID 0000.0001) %MON ke_vol                       =   4.6182952305125E+12
(PID.TID 0000.0001) // =======================================================
(PID.TID 0000.0001) // End MONITOR dynamic field statistics
(PID.TID 0000.0001) // =======================================================
(PID.TID 0000.0001) // =======================================================
(PID.TID 0000.0001) // Begin OBCS MONITOR field statistics
(PID.TID 0000.0001) // =======================================================
(PID.TID 0000.0001) %MON obc_N_vVel_max               =  -6.2055519277738E-08
(PID.TID 0000.0001) %MON obc_N_vVel_min               =  -6.2055519277739E-08
(PID.TID 0000.0001) %MON obc_N_vVel_mean              =  -6.2055519277738E-08
(PID.TID 0000.0001) %MON obc_N_vVel_sd                =   9.2302208946411E-15
(PID.TID 0000.0001) %MON obc_N_vVel_Int               =  -4.0956642723307E+00
(PID.TID 0000.0001) // =======================================================
(PID.TID 0000.0001) // End OBCS MONITOR field statistics
(PID.TID 0000.0001) // =======================================================
 cg2d: Sum(rhs),rhsMax =   3.01086805733469E+00  4.53047612585085E+02
(PID.TID 0000.0001)      cg2d_init_res =   1.67108506630810E-06
(PID.TID 0000.0001)      cg2d_iters(min,last) =      -1      72
(PID.TID 0000.0001)      cg2d_last_res =   8.97545850512344E-12
(PID.TID 0000.0001) // =======================================================
(PID.TID 0000.0001) // Begin MONITOR dynamic field statistics
(PID.TID 0000.0001) // =======================================================
(PID.TID 0000.0001) %MON time_tsnumber                =                   775
(PID.TID 0000.0001) %MON time_secondsf                =   7.7500000000000E+04
(PID.TID 0000.0001) %MON dynstat_eta_max              =   5.7976181943582E+00
(PID.TID 0000.0001) %MON dynstat_eta_min              =  -1.4174686671994E+01
(PID.TID 0000.0001) %MON dynstat_eta_mean             =  -2.5260492318226E+00
(PID.TID 0000.0001) %MON dynstat_eta_sd               =   4.9416560476297E+00
(PID.TID 0000.0001) %MON dynstat_eta_del2             =   1.9058231203530E-01
(PID.TID 0000.0001) %MON dynstat_uvel_max             =   3.3306544291190E-03
(PID.TID 0000.0001) %MON dynstat_uvel_min             =  -1.1601032712141E-02
(PID.TID 0000.0001) %MON dynstat_uvel_mean            =  -1.1219320401729E-09
(PID.TID 0000.0001) %MON dynstat_uvel_sd              =   3.0574449951510E-04
(PID.TID 0000.0001) %MON dynstat_uvel_del2            =   5.1781060165651E-07
(PID.TID 0000.0001) %MON dynstat_vvel_max             =   9.5730224257753E-03
(PID.TID 0000.0001) %MON dynstat_vvel_min             =  -3.2763615493359E-03
(PID.TID 0000.0001) %MON dynstat_vvel_mean            =  -4.7061002983513E-08
(PID.TID 0000.0001) %MON dynstat_vvel_sd              =   1.7799952608891E-04
(PID.TID 0000.0001) %MON dynstat_vvel_del2            =   4.8378121262905E-07
(PID.TID 0000.0001) %MON dynstat_wvel_max             =   4.5160032544098E-04
(PID.TID 0000.0001) %MON dynstat_wvel_min             =  -4.4388420427027E-04
(PID.TID 0000.0001) %MON dynstat_wvel_mean            =   1.8286423695593E-10
(PID.TID 0000.0001) %MON dynstat_wvel_sd              =   1.0613362713210E-05
(PID.TID 0000.0001) %MON dynstat_wvel_del2            =   4.3551460434143E-08
(PID.TID 0000.0001) %MON dynstat_theta_max            =   1.2000000000000E+00
(PID.TID 0000.0001) %MON dynstat_theta_min            =  -1.0000000000000E+00
(PID.TID 0000.0001) %MON dynstat_theta_mean           =   5.6532093803053E-01
(PID.TID 0000.0001) %MON dynstat_theta_sd             =   8.4901907924142E-01
(PID.TID 0000.0001) %MON dynstat_theta_del2           =   1.3523511055423E-06
(PID.TID 0000.0001) %MON dynstat_salt_max             =   3.4700000000000E+01
(PID.TID 0000.0001) %MON dynstat_salt_min             =   3.4000000000000E+01
(PID.TID 0000.0001) %MON dynstat_salt_mean            =   3.4498042145401E+01
(PID.TID 0000.0001) %MON dynstat_salt_sd              =   2.7014231070789E-01
(PID.TID 0000.0001) %MON dynstat_salt_del2            =   5.3054724797978E-07
(PID.TID 0000.0001) %MON advcfl_uvel_max              =   1.1601032712141E-03
(PID.TID 0000.0001) %MON advcfl_vvel_max              =   9.5730224257753E-04
(PID.TID 0000.0001) %MON advcfl_wvel_max              =   2.2580016272049E-03
(PID.TID 0000.0001) %MON advcfl_W_hf_max              =   2.2580016272049E-03
(PID.TID 0000.0001) %MON pe_b_mean                    =  -6.8254285327408E-01
(PID.TID 0000.0001) %MON ke_max                       =   4.1307748039476E-05
(PID.TID 0000.0001) %MON ke_mean                      =   6.1702637299059E-08
(PID.TID 0000.0001) %MON ke_vol                       =   4.6182952490221E+12
(PID.TID 0000.0001) // =======================================================
(PID.TID 0000.0001) // End MONITOR dynamic field statistics
(PID.TID 0000.0001) // =======================================================
(PID.TID 0000.0001) // =======================================================
(PID.TID 0000.0001) // Begin OBCS MONITOR field statistics
(PID.TID 0000.0001) // =======================================================
(PID.TID 0000.0001) %MON obc_N_vVel_max               =  -6.2242870900389E-08
(PID.TID 0000.0001) %MON obc_N_vVel_min               =  -6.2242870900391E-08
(PID.TID 0000.0001) %MON obc_N_vVel_mean              =  -6.2242870900389E-08
(PID.TID 0000.0001) %MON obc_N_vVel_sd                =   1.5813567179959E-14
(PID.TID 0000.0001) %MON obc_N_vVel_Int               =  -4.1080294794257E+00
(PID.TID 0000.0001) // =======================================================
(PID.TID 0000.0001) // End OBCS MONITOR field statistics
(PID.TID 0000.0001) // =======================================================
 cg2d: Sum(rhs),rhsMax =   3.01086438597715E+00  4.53047604259239E+02
(PID.TID 0000.0001)      cg2d_init_res =   1.66742877552067E-06
(PID.TID 0000.0001)      cg2d_iters(min,last) =      -1      72
(PID.TID 0000.0001)      cg2d_last_res =   8.99383783874389E-12
(PID.TID 0000.0001) // =======================================================
(PID.TID 0000.0001) // Begin MONITOR dynamic field statistics
(PID.TID 0000.0001) // =======================================================
(PID.TID 0000.0001) %MON time_tsnumber                =                   776
(PID.TID 0000.0001) %MON time_secondsf                =   7.7600000000000E+04
(PID.TID 0000.0001) %MON dynstat_eta_max              =   5.7976210101048E+00
(PID.TID 0000.0001) %MON dynstat_eta_min              =  -1.4174681696426E+01
(PID.TID 0000.0001) %MON dynstat_eta_mean             =  -2.5260461052156E+00
(PID.TID 0000.0001) %MON dynstat_eta_sd               =   4.9416550916657E+00
(PID.TID 0000.0001) %MON dynstat_eta_del2             =   1.9058231855301E-01
(PID.TID 0000.0001) %MON dynstat_uvel_max             =   3.3358115350861E-03
(PID.TID 0000.0001) %MON dynstat_uvel_min             =  -1.1633227785311E-02
(PID.TID 0000.0001) %MON dynstat_uvel_mean            =  -1.1230545924779E-09
(PID.TID 0000.0001) %MON dynstat_uvel_sd              =   3.0654364905131E-04
(PID.TID 0000.0001) %MON dynstat_uvel_del2            =   5.1896163333156E-07
(PID.TID 0000.0001) %MON dynstat_vvel_max             =   9.5924458735146E-03
(PID.TID 0000.0001) %MON dynstat_vvel_min             =  -3.2850284790635E-03
(PID.TID 0000.0001) %MON dynstat_vvel_mean            =  -4.7224491145006E-08
(PID.TID 0000.0001) %MON dynstat_vvel_sd              =   1.7839581859624E-04
(PID.TID 0000.0001) %MON dynstat_vvel_del2            =   4.8460043530626E-07
(PID.TID 0000.0001) %MON dynstat_wvel_max             =   4.5300464831516E-04
(PID.TID 0000.0001) %MON dynstat_wvel_min             =  -4.4540415131403E-04
(PID.TID 0000.0001) %MON dynstat_wvel_mean            =   1.8318281072982E-10
(PID.TID 0000.0001) %MON dynstat_wvel_sd              =   1.0552833202896E-05
(PID.TID 0000.0001) %MON dynstat_wvel_del2            =   4.2996860250554E-08
(PID.TID 0000.0001) %MON dynstat_theta_max            =   1.2000000000000E+00
(PID.TID 0000.0001) %MON dynstat_theta_min            =  -1.0000000000000E+00
(PID.TID 0000.0001) %MON dynstat_theta_mean           =   5.6532059652002E-01
(PID.TID 0000.0001) %MON dynstat_theta_sd             =   8.4901895150852E-01
(PID.TID 0000.0001) %MON dynstat_theta_del2           =   1.3551843966159E-06
(PID.TID 0000.0001) %MON dynstat_salt_max             =   3.4700000000000E+01
(PID.TID 0000.0001) %MON dynstat_salt_min             =   3.4000000000000E+01
(PID.TID 0000.0001) %MON dynstat_salt_mean            =   3.4498042009486E+01
(PID.TID 0000.0001) %MON dynstat_salt_sd              =   2.7014226462152E-01
(PID.TID 0000.0001) %MON dynstat_salt_del2            =   5.3167440917322E-07
(PID.TID 0000.0001) %MON advcfl_uvel_max              =   1.1633227785311E-03
(PID.TID 0000.0001) %MON advcfl_vvel_max              =   9.5924458735146E-04
(PID.TID 0000.0001) %MON advcfl_wvel_max              =   2.2650232415758E-03
(PID.TID 0000.0001) %MON advcfl_W_hf_max              =   2.2650232415758E-03
(PID.TID 0000.0001) %MON pe_b_mean                    =  -6.8254196394035E-01
(PID.TID 0000.0001) %MON ke_max                       =   4.1536573532338E-05
(PID.TID 0000.0001) %MON ke_mean                      =   6.2013309306929E-08
(PID.TID 0000.0001) %MON ke_vol                       =   4.6182952675630E+12
(PID.TID 0000.0001) // =======================================================
(PID.TID 0000.0001) // End MONITOR dynamic field statistics
(PID.TID 0000.0001) // =======================================================
(PID.TID 0000.0001) // =======================================================
(PID.TID 0000.0001) // Begin OBCS MONITOR field statistics
(PID.TID 0000.0001) // =======================================================
(PID.TID 0000.0001) %MON obc_N_vVel_max               =  -6.2423457055944E-08
(PID.TID 0000.0001) %MON obc_N_vVel_min               =  -6.2423457055946E-08
(PID.TID 0000.0001) %MON obc_N_vVel_mean              =  -6.2423457055946E-08
(PID.TID 0000.0001) %MON obc_N_vVel_sd                =  -1.5540559832854E-28
(PID.TID 0000.0001) %MON obc_N_vVel_Int               =  -4.1199481656924E+00
(PID.TID 0000.0001) // =======================================================
(PID.TID 0000.0001) // End OBCS MONITOR field statistics
(PID.TID 0000.0001) // =======================================================
 cg2d: Sum(rhs),rhsMax =   3.01086070822829E+00  4.53047595951178E+02
(PID.TID 0000.0001)      cg2d_init_res =   1.66425900001402E-06
(PID.TID 0000.0001)      cg2d_iters(min,last) =      -1      72
(PID.TID 0000.0001)      cg2d_last_res =   9.01290822005200E-12
(PID.TID 0000.0001) // =======================================================
(PID.TID 0000.0001) // Begin MONITOR dynamic field statistics
(PID.TID 0000.0001) // =======================================================
(PID.TID 0000.0001) %MON time_tsnumber                =                   777
(PID.TID 0000.0001) %MON time_secondsf                =   7.7700000000000E+04
(PID.TID 0000.0001) %MON dynstat_eta_max              =   5.7976238265532E+00
(PID.TID 0000.0001) %MON dynstat_eta_min              =  -1.4174676707417E+01
(PID.TID 0000.0001) %MON dynstat_eta_mean             =  -2.5260429733457E+00
(PID.TID 0000.0001) %MON dynstat_eta_sd               =   4.9416541342887E+00
(PID.TID 0000.0001) %MON dynstat_eta_del2             =   1.9058232509124E-01
(PID.TID 0000.0001) %MON dynstat_uvel_max             =   3.3409701953371E-03
(PID.TID 0000.0001) %MON dynstat_uvel_min             =  -1.1665491983643E-02
(PID.TID 0000.0001) %MON dynstat_uvel_mean            =  -1.1244210303544E-09
(PID.TID 0000.0001) %MON dynstat_uvel_sd              =   3.0734580693641E-04
(PID.TID 0000.0001) %MON dynstat_uvel_del2            =   5.2011578640245E-07
(PID.TID 0000.0001) %MON dynstat_vvel_max             =   9.6118955019322E-03
(PID.TID 0000.0001) %MON dynstat_vvel_min             =  -3.2937098335895E-03
(PID.TID 0000.0001) %MON dynstat_vvel_mean            =  -4.7371366549560E-08
(PID.TID 0000.0001) %MON dynstat_vvel_sd              =   1.7879508881979E-04
(PID.TID 0000.0001) %MON dynstat_vvel_del2            =   4.8544442696893E-07
(PID.TID 0000.0001) %MON dynstat_wvel_max             =   4.5441206531360E-04
(PID.TID 0000.0001) %MON dynstat_wvel_min             =  -4.4692916006533E-04
(PID.TID 0000.0001) %MON dynstat_wvel_mean            =   1.8354033110437E-10
(PID.TID 0000.0001) %MON dynstat_wvel_sd              =   1.0501882161830E-05
(PID.TID 0000.0001) %MON dynstat_wvel_del2            =   4.2511266355051E-08
(PID.TID 0000.0001) %MON dynstat_theta_max            =   1.2000000000000E+00
(PID.TID 0000.0001) %MON dynstat_theta_min            =  -1.0000000000000E+00
(PID.TID 0000.0001) %MON dynstat_theta_mean           =   5.6532025450363E-01
(PID.TID 0000.0001) %MON dynstat_theta_sd             =   8.4901882345911E-01
(PID.TID 0000.0001) %MON dynstat_theta_del2           =   1.3580016388059E-06
(PID.TID 0000.0001) %MON dynstat_salt_max             =   3.4700000000000E+01
(PID.TID 0000.0001) %MON dynstat_salt_min             =   3.4000000000000E+01
(PID.TID 0000.0001) %MON dynstat_salt_mean            =   3.4498041873364E+01
(PID.TID 0000.0001) %MON dynstat_salt_sd              =   2.7014221841015E-01
(PID.TID 0000.0001) %MON dynstat_salt_del2            =   5.3279838239323E-07
(PID.TID 0000.0001) %MON advcfl_uvel_max              =   1.1665491983643E-03
(PID.TID 0000.0001) %MON advcfl_vvel_max              =   9.6118955019322E-04
(PID.TID 0000.0001) %MON advcfl_wvel_max              =   2.2720603265680E-03
(PID.TID 0000.0001) %MON advcfl_W_hf_max              =   2.2720603265680E-03
(PID.TID 0000.0001) %MON pe_b_mean                    =  -6.8254107299309E-01
(PID.TID 0000.0001) %MON ke_max                       =   4.1766525421018E-05
(PID.TID 0000.0001) %MON ke_mean                      =   6.2326204589059E-08
(PID.TID 0000.0001) %MON ke_vol                       =   4.6182952861350E+12
(PID.TID 0000.0001) // =======================================================
(PID.TID 0000.0001) // End MONITOR dynamic field statistics
(PID.TID 0000.0001) // =======================================================
(PID.TID 0000.0001) // =======================================================
(PID.TID 0000.0001) // Begin OBCS MONITOR field statistics
(PID.TID 0000.0001) // =======================================================
(PID.TID 0000.0001) %MON obc_N_vVel_max               =  -6.2592525082716E-08
(PID.TID 0000.0001) %MON obc_N_vVel_min               =  -6.2592525082717E-08
(PID.TID 0000.0001) %MON obc_N_vVel_mean              =  -6.2592525082716E-08
(PID.TID 0000.0001) %MON obc_N_vVel_sd                =   1.4403833450617E-14
(PID.TID 0000.0001) %MON obc_N_vVel_Int               =  -4.1311066554593E+00
(PID.TID 0000.0001) // =======================================================
(PID.TID 0000.0001) // End OBCS MONITOR field statistics
(PID.TID 0000.0001) // =======================================================
 cg2d: Sum(rhs),rhsMax =   3.01085702408577E+00  4.53047587661020E+02
(PID.TID 0000.0001)      cg2d_init_res =   1.66211331945057E-06
(PID.TID 0000.0001)      cg2d_iters(min,last) =      -1      72
(PID.TID 0000.0001)      cg2d_last_res =   9.03273540920609E-12
(PID.TID 0000.0001) // =======================================================
(PID.TID 0000.0001) // Begin MONITOR dynamic field statistics
(PID.TID 0000.0001) // =======================================================
(PID.TID 0000.0001) %MON time_tsnumber                =                   778
(PID.TID 0000.0001) %MON time_secondsf                =   7.7800000000000E+04
(PID.TID 0000.0001) %MON dynstat_eta_max              =   5.7976266435156E+00
(PID.TID 0000.0001) %MON dynstat_eta_min              =  -1.4174671704866E+01
(PID.TID 0000.0001) %MON dynstat_eta_mean             =  -2.5260398362117E+00
(PID.TID 0000.0001) %MON dynstat_eta_sd               =   4.9416531755038E+00
(PID.TID 0000.0001) %MON dynstat_eta_del2             =   1.9058233165017E-01
(PID.TID 0000.0001) %MON dynstat_uvel_max             =   3.3461303568352E-03
(PID.TID 0000.0001) %MON dynstat_uvel_min             =  -1.1697825352991E-02
(PID.TID 0000.0001) %MON dynstat_uvel_mean            =  -1.1259945777858E-09
(PID.TID 0000.0001) %MON dynstat_uvel_sd              =   3.0815097310136E-04
(PID.TID 0000.0001) %MON dynstat_uvel_del2            =   5.2127304938524E-07
(PID.TID 0000.0001) %MON dynstat_vvel_max             =   9.6313712820821E-03
(PID.TID 0000.0001) %MON dynstat_vvel_min             =  -3.3024056544377E-03
(PID.TID 0000.0001) %MON dynstat_vvel_mean            =  -4.7497888637747E-08
(PID.TID 0000.0001) %MON dynstat_vvel_sd              =   1.7919829612074E-04
(PID.TID 0000.0001) %MON dynstat_vvel_del2            =   4.8632396462072E-07
(PID.TID 0000.0001) %MON dynstat_wvel_max             =   4.5582258172624E-04
(PID.TID 0000.0001) %MON dynstat_wvel_min             =  -4.4845923792349E-04
(PID.TID 0000.0001) %MON dynstat_wvel_mean            =   1.8393038724192E-10
(PID.TID 0000.0001) %MON dynstat_wvel_sd              =   1.0465777626363E-05
(PID.TID 0000.0001) %MON dynstat_wvel_del2            =   4.2142396030637E-08
(PID.TID 0000.0001) %MON dynstat_theta_max            =   1.2000000000000E+00
(PID.TID 0000.0001) %MON dynstat_theta_min            =  -1.0000000000000E+00
(PID.TID 0000.0001) %MON dynstat_theta_mean           =   5.6531991197169E-01
(PID.TID 0000.0001) %MON dynstat_theta_sd             =   8.4901869509094E-01
(PID.TID 0000.0001) %MON dynstat_theta_del2           =   1.3607919118511E-06
(PID.TID 0000.0001) %MON dynstat_salt_max             =   3.4700000000000E+01
(PID.TID 0000.0001) %MON dynstat_salt_min             =   3.4000000000000E+01
(PID.TID 0000.0001) %MON dynstat_salt_mean            =   3.4498041737032E+01
(PID.TID 0000.0001) %MON dynstat_salt_sd              =   2.7014217207275E-01
(PID.TID 0000.0001) %MON dynstat_salt_del2            =   5.3391635066148E-07
(PID.TID 0000.0001) %MON advcfl_uvel_max              =   1.1697825352991E-03
(PID.TID 0000.0001) %MON advcfl_vvel_max              =   9.6313712820821E-04
(PID.TID 0000.0001) %MON advcfl_wvel_max              =   2.2791129086312E-03
(PID.TID 0000.0001) %MON advcfl_W_hf_max              =   2.2791129086312E-03
(PID.TID 0000.0001) %MON pe_b_mean                    =  -6.8254018043127E-01
(PID.TID 0000.0001) %MON ke_max                       =   4.1997607998863E-05
(PID.TID 0000.0001) %MON ke_mean                      =   6.2641505704175E-08
(PID.TID 0000.0001) %MON ke_vol                       =   4.6182953047383E+12
(PID.TID 0000.0001) // =======================================================
(PID.TID 0000.0001) // End MONITOR dynamic field statistics
(PID.TID 0000.0001) // =======================================================
(PID.TID 0000.0001) // =======================================================
(PID.TID 0000.0001) // Begin OBCS MONITOR field statistics
(PID.TID 0000.0001) // =======================================================
(PID.TID 0000.0001) %MON obc_N_vVel_max               =  -6.2746130265511E-08
(PID.TID 0000.0001) %MON obc_N_vVel_min               =  -6.2746130265512E-08
(PID.TID 0000.0001) %MON obc_N_vVel_mean              =  -6.2746130265512E-08
(PID.TID 0000.0001) %MON obc_N_vVel_sd                =  -1.5540559832854E-28
(PID.TID 0000.0001) %MON obc_N_vVel_Int               =  -4.1412445975238E+00
(PID.TID 0000.0001) // =======================================================
(PID.TID 0000.0001) // End OBCS MONITOR field statistics
(PID.TID 0000.0001) // =======================================================
 cg2d: Sum(rhs),rhsMax =   3.01085333355103E+00  4.53047579388775E+02
(PID.TID 0000.0001)      cg2d_init_res =   1.66143172924741E-06
(PID.TID 0000.0001)      cg2d_iters(min,last) =      -1      72
(PID.TID 0000.0001)      cg2d_last_res =   9.05331315931684E-12
(PID.TID 0000.0001) // =======================================================
(PID.TID 0000.0001) // Begin MONITOR dynamic field statistics
(PID.TID 0000.0001) // =======================================================
(PID.TID 0000.0001) %MON time_tsnumber                =                   779
(PID.TID 0000.0001) %MON time_secondsf                =   7.7900000000000E+04
(PID.TID 0000.0001) %MON dynstat_eta_max              =   5.7976294607877E+00
(PID.TID 0000.0001) %MON dynstat_eta_min              =  -1.4174666688661E+01
(PID.TID 0000.0001) %MON dynstat_eta_mean             =  -2.5260366938147E+00
(PID.TID 0000.0001) %MON dynstat_eta_sd               =   4.9416522153164E+00
(PID.TID 0000.0001) %MON dynstat_eta_del2             =   1.9058233822997E-01
(PID.TID 0000.0001) %MON dynstat_uvel_max             =   3.3512919663714E-03
(PID.TID 0000.0001) %MON dynstat_uvel_min             =  -1.1730227938505E-02
(PID.TID 0000.0001) %MON dynstat_uvel_mean            =  -1.1277312398969E-09
(PID.TID 0000.0001) %MON dynstat_uvel_sd              =   3.0895914794945E-04
(PID.TID 0000.0001) %MON dynstat_uvel_del2            =   5.2243341739812E-07
(PID.TID 0000.0001) %MON dynstat_vvel_max             =   9.6508731840765E-03
(PID.TID 0000.0001) %MON dynstat_vvel_min             =  -3.3111159833608E-03
(PID.TID 0000.0001) %MON dynstat_vvel_mean            =  -4.7601448432568E-08
(PID.TID 0000.0001) %MON dynstat_vvel_sd              =   1.7960613634734E-04
(PID.TID 0000.0001) %MON dynstat_vvel_del2            =   4.8724663680715E-07
(PID.TID 0000.0001) %MON dynstat_wvel_max             =   4.5723620283036E-04
(PID.TID 0000.0001) %MON dynstat_wvel_min             =  -4.4999439232308E-04
(PID.TID 0000.0001) %MON dynstat_wvel_mean            =   1.8434566078147E-10
(PID.TID 0000.0001) %MON dynstat_wvel_sd              =   1.0448377950671E-05
(PID.TID 0000.0001) %MON dynstat_wvel_del2            =   4.1927259467004E-08
(PID.TID 0000.0001) %MON dynstat_theta_max            =   1.2000000000000E+00
(PID.TID 0000.0001) %MON dynstat_theta_min            =  -1.0000000000000E+00
(PID.TID 0000.0001) %MON dynstat_theta_mean           =   5.6531956891352E-01
(PID.TID 0000.0001) %MON dynstat_theta_sd             =   8.4901856639637E-01
(PID.TID 0000.0001) %MON dynstat_theta_del2           =   1.3635480274659E-06
(PID.TID 0000.0001) %MON dynstat_salt_max             =   3.4700000000000E+01
(PID.TID 0000.0001) %MON dynstat_salt_min             =   3.4000000000000E+01
(PID.TID 0000.0001) %MON dynstat_salt_mean            =   3.4498041600485E+01
(PID.TID 0000.0001) %MON dynstat_salt_sd              =   2.7014212560709E-01
(PID.TID 0000.0001) %MON dynstat_salt_del2            =   5.3502646568729E-07
(PID.TID 0000.0001) %MON advcfl_uvel_max              =   1.1730227938505E-03
(PID.TID 0000.0001) %MON advcfl_vvel_max              =   9.6508731840765E-04
(PID.TID 0000.0001) %MON advcfl_wvel_max              =   2.2861810141518E-03
(PID.TID 0000.0001) %MON advcfl_W_hf_max              =   2.2861810141518E-03
(PID.TID 0000.0001) %MON pe_b_mean                    =  -6.8253928625424E-01
(PID.TID 0000.0001) %MON ke_max                       =   4.2229825564767E-05
(PID.TID 0000.0001) %MON ke_mean                      =   6.2959349640716E-08
(PID.TID 0000.0001) %MON ke_vol                       =   4.6182953233729E+12
(PID.TID 0000.0001) // =======================================================
(PID.TID 0000.0001) // End MONITOR dynamic field statistics
(PID.TID 0000.0001) // =======================================================
(PID.TID 0000.0001) // =======================================================
(PID.TID 0000.0001) // Begin OBCS MONITOR field statistics
(PID.TID 0000.0001) // =======================================================
(PID.TID 0000.0001) %MON obc_N_vVel_max               =  -6.2881287748515E-08
(PID.TID 0000.0001) %MON obc_N_vVel_min               =  -6.2881287748517E-08
(PID.TID 0000.0001) %MON obc_N_vVel_mean              =  -6.2881287748517E-08
(PID.TID 0000.0001) %MON obc_N_vVel_sd                =  -2.1535902712534E-28
(PID.TID 0000.0001) %MON obc_N_vVel_Int               =  -4.1501649914021E+00
(PID.TID 0000.0001) // =======================================================
(PID.TID 0000.0001) // End OBCS MONITOR field statistics
(PID.TID 0000.0001) // =======================================================
 cg2d: Sum(rhs),rhsMax =   3.01084963662876E+00  4.53047571134317E+02
(PID.TID 0000.0001)      cg2d_init_res =   1.66251703545595E-06
(PID.TID 0000.0001)      cg2d_iters(min,last) =      -1      72
(PID.TID 0000.0001)      cg2d_last_res =   9.07461271385442E-12
(PID.TID 0000.0001) // =======================================================
(PID.TID 0000.0001) // Begin MONITOR dynamic field statistics
(PID.TID 0000.0001) // =======================================================
(PID.TID 0000.0001) %MON time_tsnumber                =                   780
(PID.TID 0000.0001) %MON time_secondsf                =   7.8000000000000E+04
(PID.TID 0000.0001) %MON dynstat_eta_max              =   5.7976322781684E+00
(PID.TID 0000.0001) %MON dynstat_eta_min              =  -1.4174661658710E+01
(PID.TID 0000.0001) %MON dynstat_eta_mean             =  -2.5260335461580E+00
(PID.TID 0000.0001) %MON dynstat_eta_sd               =   4.9416512537318E+00
(PID.TID 0000.0001) %MON dynstat_eta_del2             =   1.9058234483088E-01
(PID.TID 0000.0001) %MON dynstat_uvel_max             =   3.3564549707652E-03
(PID.TID 0000.0001) %MON dynstat_uvel_min             =  -1.1762699784576E-02
(PID.TID 0000.0001) %MON dynstat_uvel_mean            =  -1.1295787647566E-09
(PID.TID 0000.0001) %MON dynstat_uvel_sd              =   3.0977033243125E-04
(PID.TID 0000.0001) %MON dynstat_uvel_del2            =   5.2359689279110E-07
(PID.TID 0000.0001) %MON dynstat_vvel_max             =   9.6704011771880E-03
(PID.TID 0000.0001) %MON dynstat_vvel_min             =  -3.3198408624120E-03
(PID.TID 0000.0001) %MON dynstat_vvel_mean            =  -4.7680659988508E-08
(PID.TID 0000.0001) %MON dynstat_vvel_sd              =   1.8001898601578E-04
(PID.TID 0000.0001) %MON dynstat_vvel_del2            =   4.8821621972938E-07
(PID.TID 0000.0001) %MON dynstat_wvel_max             =   4.5865293390856E-04
(PID.TID 0000.0001) %MON dynstat_wvel_min             =  -4.5153463066980E-04
(PID.TID 0000.0001) %MON dynstat_wvel_mean            =   1.8477814157839E-10
(PID.TID 0000.0001) %MON dynstat_wvel_sd              =   1.0451740204464E-05
(PID.TID 0000.0001) %MON dynstat_wvel_del2            =   4.1887655715493E-08
(PID.TID 0000.0001) %MON dynstat_theta_max            =   1.2000000000000E+00
(PID.TID 0000.0001) %MON dynstat_theta_min            =  -1.0000000000000E+00
(PID.TID 0000.0001) %MON dynstat_theta_mean           =   5.6531922531772E-01
(PID.TID 0000.0001) %MON dynstat_theta_sd             =   8.4901843736873E-01
(PID.TID 0000.0001) %MON dynstat_theta_del2           =   1.3662672785770E-06
(PID.TID 0000.0001) %MON dynstat_salt_max             =   3.4700000000000E+01
(PID.TID 0000.0001) %MON dynstat_salt_min             =   3.4000000000000E+01
(PID.TID 0000.0001) %MON dynstat_salt_mean            =   3.4498041463721E+01
(PID.TID 0000.0001) %MON dynstat_salt_sd              =   2.7014207901078E-01
(PID.TID 0000.0001) %MON dynstat_salt_del2            =   5.3612800840764E-07
(PID.TID 0000.0001) %MON advcfl_uvel_max              =   1.1762699784576E-03
(PID.TID 0000.0001) %MON advcfl_vvel_max              =   9.6704011771880E-04
(PID.TID 0000.0001) %MON advcfl_wvel_max              =   2.2932646695428E-03
(PID.TID 0000.0001) %MON advcfl_W_hf_max              =   2.2932646695428E-03
(PID.TID 0000.0001) %MON pe_b_mean                    =  -6.8253839046151E-01
(PID.TID 0000.0001) %MON ke_max                       =   4.2463182422897E-05
(PID.TID 0000.0001) %MON ke_mean                      =   6.3279817291062E-08
(PID.TID 0000.0001) %MON ke_vol                       =   4.6182953420387E+12
(PID.TID 0000.0001) // =======================================================
(PID.TID 0000.0001) // End MONITOR dynamic field statistics
(PID.TID 0000.0001) // =======================================================
(PID.TID 0000.0001) // =======================================================
(PID.TID 0000.0001) // Begin OBCS MONITOR field statistics
(PID.TID 0000.0001) // =======================================================
(PID.TID 0000.0001) %MON obc_N_vVel_max               =  -6.2996080039915E-08
(PID.TID 0000.0001) %MON obc_N_vVel_min               =  -6.2996080039915E-08
(PID.TID 0000.0001) %MON obc_N_vVel_mean              =  -6.2996080039915E-08
(PID.TID 0000.0001) %MON obc_N_vVel_sd                =   1.0087767680389E-14
(PID.TID 0000.0001) %MON obc_N_vVel_Int               =  -4.1577412826344E+00
(PID.TID 0000.0001) // =======================================================
(PID.TID 0000.0001) // End OBCS MONITOR field statistics
(PID.TID 0000.0001) // =======================================================
 cg2d: Sum(rhs),rhsMax =   3.01084593332415E+00  4.53047562897445E+02
(PID.TID 0000.0001)      cg2d_init_res =   1.66550325644385E-06
(PID.TID 0000.0001)      cg2d_iters(min,last) =      -1      72
(PID.TID 0000.0001)      cg2d_last_res =   9.09663068858277E-12
(PID.TID 0000.0001) // =======================================================
(PID.TID 0000.0001) // Begin MONITOR dynamic field statistics
(PID.TID 0000.0001) // =======================================================
(PID.TID 0000.0001) %MON time_tsnumber                =                   781
(PID.TID 0000.0001) %MON time_secondsf                =   7.8100000000000E+04
(PID.TID 0000.0001) %MON dynstat_eta_max              =   5.7976350954571E+00
(PID.TID 0000.0001) %MON dynstat_eta_min              =  -1.4174656614912E+01
(PID.TID 0000.0001) %MON dynstat_eta_mean             =  -2.5260303932448E+00
(PID.TID 0000.0001) %MON dynstat_eta_sd               =   4.9416502907545E+00
(PID.TID 0000.0001) %MON dynstat_eta_del2             =   1.9058235145309E-01
(PID.TID 0000.0001) %MON dynstat_uvel_max             =   3.3616193168395E-03
(PID.TID 0000.0001) %MON dynstat_uvel_min             =  -1.1795240934526E-02
(PID.TID 0000.0001) %MON dynstat_uvel_mean            =  -1.1314751283332E-09
(PID.TID 0000.0001) %MON dynstat_uvel_sd              =   3.1058452808607E-04
(PID.TID 0000.0001) %MON dynstat_uvel_del2            =   5.2476348523036E-07
(PID.TID 0000.0001) %MON dynstat_vvel_max             =   9.6899552298653E-03
(PID.TID 0000.0001) %MON dynstat_vvel_min             =  -3.3285803338403E-03
(PID.TID 0000.0001) %MON dynstat_vvel_mean            =  -4.7735392710595E-08
(PID.TID 0000.0001) %MON dynstat_vvel_sd              =   1.8043687658020E-04
(PID.TID 0000.0001) %MON dynstat_vvel_del2            =   4.8923240877279E-07
(PID.TID 0000.0001) %MON dynstat_wvel_max             =   4.6007278023362E-04
(PID.TID 0000.0001) %MON dynstat_wvel_min             =  -4.5307996039300E-04
(PID.TID 0000.0001) %MON dynstat_wvel_mean            =   1.8521963731797E-10
(PID.TID 0000.0001) %MON dynstat_wvel_sd              =   1.0475921587254E-05
(PID.TID 0000.0001) %MON dynstat_wvel_del2            =   4.2027428809668E-08
(PID.TID 0000.0001) %MON dynstat_theta_max            =   1.2000000000000E+00
(PID.TID 0000.0001) %MON dynstat_theta_min            =  -1.0000000000000E+00
(PID.TID 0000.0001) %MON dynstat_theta_mean           =   5.6531888117230E-01
(PID.TID 0000.0001) %MON dynstat_theta_sd             =   8.4901830800538E-01
(PID.TID 0000.0001) %MON dynstat_theta_del2           =   1.3689512891668E-06
(PID.TID 0000.0001) %MON dynstat_salt_max             =   3.4700000000000E+01
(PID.TID 0000.0001) %MON dynstat_salt_min             =   3.4000000000000E+01
(PID.TID 0000.0001) %MON dynstat_salt_mean            =   3.4498041326734E+01
(PID.TID 0000.0001) %MON dynstat_salt_sd              =   2.7014203228298E-01
(PID.TID 0000.0001) %MON dynstat_salt_del2            =   5.3722142929204E-07
(PID.TID 0000.0001) %MON advcfl_uvel_max              =   1.1795240934526E-03
(PID.TID 0000.0001) %MON advcfl_vvel_max              =   9.6899552298653E-04
(PID.TID 0000.0001) %MON advcfl_wvel_max              =   2.3003639011681E-03
(PID.TID 0000.0001) %MON advcfl_W_hf_max              =   2.3003639011681E-03
(PID.TID 0000.0001) %MON pe_b_mean                    =  -6.8253749305237E-01
(PID.TID 0000.0001) %MON ke_max                       =   4.2697682866908E-05
(PID.TID 0000.0001) %MON ke_mean                      =   6.3602928190320E-08
(PID.TID 0000.0001) %MON ke_vol                       =   4.6182953607358E+12
(PID.TID 0000.0001) // =======================================================
(PID.TID 0000.0001) // End MONITOR dynamic field statistics
(PID.TID 0000.0001) // =======================================================
(PID.TID 0000.0001) // =======================================================
(PID.TID 0000.0001) // Begin OBCS MONITOR field statistics
(PID.TID 0000.0001) // =======================================================
(PID.TID 0000.0001) %MON obc_N_vVel_max               =  -6.3089728120277E-08
(PID.TID 0000.0001) %MON obc_N_vVel_min               =  -6.3089728120278E-08
(PID.TID 0000.0001) %MON obc_N_vVel_mean              =  -6.3089728120278E-08
(PID.TID 0000.0001) %MON obc_N_vVel_sd                =   3.9720546451956E-15
(PID.TID 0000.0001) %MON obc_N_vVel_Int               =  -4.1639220559384E+00
(PID.TID 0000.0001) // =======================================================
(PID.TID 0000.0001) // End OBCS MONITOR field statistics
(PID.TID 0000.0001) // =======================================================
 cg2d: Sum(rhs),rhsMax =   3.01084222364024E+00  4.53047554677854E+02
(PID.TID 0000.0001)      cg2d_init_res =   1.67034364282960E-06
(PID.TID 0000.0001)      cg2d_iters(min,last) =      -1      72
(PID.TID 0000.0001)      cg2d_last_res =   9.11918970979469E-12
(PID.TID 0000.0001) // =======================================================
(PID.TID 0000.0001) // Begin MONITOR dynamic field statistics
(PID.TID 0000.0001) // =======================================================
(PID.TID 0000.0001) %MON time_tsnumber                =                   782
(PID.TID 0000.0001) %MON time_secondsf                =   7.8200000000000E+04
(PID.TID 0000.0001) %MON dynstat_eta_max              =   5.7976379124549E+00
(PID.TID 0000.0001) %MON dynstat_eta_min              =  -1.4174651557168E+01
(PID.TID 0000.0001) %MON dynstat_eta_mean             =  -2.5260272350760E+00
(PID.TID 0000.0001) %MON dynstat_eta_sd               =   4.9416493263845E+00
(PID.TID 0000.0001) %MON dynstat_eta_del2             =   1.9058235809677E-01
(PID.TID 0000.0001) %MON dynstat_uvel_max             =   3.3667849512131E-03
(PID.TID 0000.0001) %MON dynstat_uvel_min             =  -1.1827851431134E-02
(PID.TID 0000.0001) %MON dynstat_uvel_mean            =  -1.1333561569899E-09
(PID.TID 0000.0001) %MON dynstat_uvel_sd              =   3.1140173704979E-04
(PID.TID 0000.0001) %MON dynstat_uvel_del2            =   5.2593321132277E-07
(PID.TID 0000.0001) %MON dynstat_vvel_max             =   9.7095353095369E-03
(PID.TID 0000.0001) %MON dynstat_vvel_min             =  -3.3373344401477E-03
(PID.TID 0000.0001) %MON dynstat_vvel_mean            =  -4.7766761330594E-08
(PID.TID 0000.0001) %MON dynstat_vvel_sd              =   1.8085950041917E-04
(PID.TID 0000.0001) %MON dynstat_vvel_del2            =   4.9029092470198E-07
(PID.TID 0000.0001) %MON dynstat_wvel_max             =   4.6149574707316E-04
(PID.TID 0000.0001) %MON dynstat_wvel_min             =  -4.5463038893407E-04
(PID.TID 0000.0001) %MON dynstat_wvel_mean            =   1.8566187825464E-10
(PID.TID 0000.0001) %MON dynstat_wvel_sd              =   1.0519006070540E-05
(PID.TID 0000.0001) %MON dynstat_wvel_del2            =   4.2332149958755E-08
(PID.TID 0000.0001) %MON dynstat_theta_max            =   1.2000000000000E+00
(PID.TID 0000.0001) %MON dynstat_theta_min            =  -1.0000000000000E+00
(PID.TID 0000.0001) %MON dynstat_theta_mean           =   5.6531853646479E-01
(PID.TID 0000.0001) %MON dynstat_theta_sd             =   8.4901817830053E-01
(PID.TID 0000.0001) %MON dynstat_theta_del2           =   1.3716060733752E-06
(PID.TID 0000.0001) %MON dynstat_salt_max             =   3.4700000000000E+01
(PID.TID 0000.0001) %MON dynstat_salt_min             =   3.4000000000000E+01
(PID.TID 0000.0001) %MON dynstat_salt_mean            =   3.4498041189522E+01
(PID.TID 0000.0001) %MON dynstat_salt_sd              =   2.7014198542180E-01
(PID.TID 0000.0001) %MON dynstat_salt_del2            =   5.3830828378060E-07
(PID.TID 0000.0001) %MON advcfl_uvel_max              =   1.1827851431134E-03
(PID.TID 0000.0001) %MON advcfl_vvel_max              =   9.7095353095369E-04
(PID.TID 0000.0001) %MON advcfl_wvel_max              =   2.3074787353658E-03
(PID.TID 0000.0001) %MON advcfl_W_hf_max              =   2.3074787353658E-03
(PID.TID 0000.0001) %MON pe_b_mean                    =  -6.8253659402509E-01
(PID.TID 0000.0001) %MON ke_max                       =   4.2933331210268E-05
(PID.TID 0000.0001) %MON ke_mean                      =   6.3928640892928E-08
(PID.TID 0000.0001) %MON ke_vol                       =   4.6182953794641E+12
(PID.TID 0000.0001) // =======================================================
(PID.TID 0000.0001) // End MONITOR dynamic field statistics
(PID.TID 0000.0001) // =======================================================
(PID.TID 0000.0001) // =======================================================
(PID.TID 0000.0001) // Begin OBCS MONITOR field statistics
(PID.TID 0000.0001) // =======================================================
(PID.TID 0000.0001) %MON obc_N_vVel_max               =  -6.3162601443686E-08
(PID.TID 0000.0001) %MON obc_N_vVel_min               =  -6.3162601443687E-08
(PID.TID 0000.0001) %MON obc_N_vVel_mean              =  -6.3162601443687E-08
(PID.TID 0000.0001) %MON obc_N_vVel_sd                =   2.8086667748614E-15
(PID.TID 0000.0001) %MON obc_N_vVel_Int               =  -4.1687316952833E+00
(PID.TID 0000.0001) // =======================================================
(PID.TID 0000.0001) // End OBCS MONITOR field statistics
(PID.TID 0000.0001) // =======================================================
 cg2d: Sum(rhs),rhsMax =   3.01083850758014E+00  4.53047546475166E+02
(PID.TID 0000.0001)      cg2d_init_res =   1.67682814870717E-06
(PID.TID 0000.0001)      cg2d_iters(min,last) =      -1      72
(PID.TID 0000.0001)      cg2d_last_res =   9.14231800887914E-12
(PID.TID 0000.0001) // =======================================================
(PID.TID 0000.0001) // Begin MONITOR dynamic field statistics
(PID.TID 0000.0001) // =======================================================
(PID.TID 0000.0001) %MON time_tsnumber                =                   783
(PID.TID 0000.0001) %MON time_secondsf                =   7.8300000000000E+04
(PID.TID 0000.0001) %MON dynstat_eta_max              =   5.7976407289771E+00
(PID.TID 0000.0001) %MON dynstat_eta_min              =  -1.4174646485372E+01
(PID.TID 0000.0001) %MON dynstat_eta_mean             =  -2.5260240716521E+00
(PID.TID 0000.0001) %MON dynstat_eta_sd               =   4.9416483606217E+00
(PID.TID 0000.0001) %MON dynstat_eta_del2             =   1.9058236476205E-01
(PID.TID 0000.0001) %MON dynstat_uvel_max             =   3.3719518193518E-03
(PID.TID 0000.0001) %MON dynstat_uvel_min             =  -1.1860531316309E-02
(PID.TID 0000.0001) %MON dynstat_uvel_mean            =  -1.1351636818934E-09
(PID.TID 0000.0001) %MON dynstat_uvel_sd              =   3.1222196203007E-04
(PID.TID 0000.0001) %MON dynstat_uvel_del2            =   5.2710609377540E-07
(PID.TID 0000.0001) %MON dynstat_vvel_max             =   9.7291413821698E-03
(PID.TID 0000.0001) %MON dynstat_vvel_min             =  -3.3461032240165E-03
(PID.TID 0000.0001) %MON dynstat_vvel_mean            =  -4.7777098205084E-08
(PID.TID 0000.0001) %MON dynstat_vvel_sd              =   1.8128624726772E-04
(PID.TID 0000.0001) %MON dynstat_vvel_del2            =   4.9138397823854E-07
(PID.TID 0000.0001) %MON dynstat_wvel_max             =   4.6292183968796E-04
(PID.TID 0000.0001) %MON dynstat_wvel_min             =  -4.5618592374574E-04
(PID.TID 0000.0001) %MON dynstat_wvel_mean            =   1.8609689601471E-10
(PID.TID 0000.0001) %MON dynstat_wvel_sd              =   1.0577350387836E-05
(PID.TID 0000.0001) %MON dynstat_wvel_del2            =   4.2771310204640E-08
(PID.TID 0000.0001) %MON dynstat_theta_max            =   1.2000000000000E+00
(PID.TID 0000.0001) %MON dynstat_theta_min            =  -1.0000000000000E+00
(PID.TID 0000.0001) %MON dynstat_theta_mean           =   5.6531819118280E-01
(PID.TID 0000.0001) %MON dynstat_theta_sd             =   8.4901804824630E-01
(PID.TID 0000.0001) %MON dynstat_theta_del2           =   1.3742416617891E-06
(PID.TID 0000.0001) %MON dynstat_salt_max             =   3.4700000000000E+01
(PID.TID 0000.0001) %MON dynstat_salt_min             =   3.4000000000000E+01
(PID.TID 0000.0001) %MON dynstat_salt_mean            =   3.4498041052080E+01
(PID.TID 0000.0001) %MON dynstat_salt_sd              =   2.7014193842462E-01
(PID.TID 0000.0001) %MON dynstat_salt_del2            =   5.3939074094198E-07
(PID.TID 0000.0001) %MON advcfl_uvel_max              =   1.1860531316309E-03
(PID.TID 0000.0001) %MON advcfl_vvel_max              =   9.7291413821698E-04
(PID.TID 0000.0001) %MON advcfl_wvel_max              =   2.3146091984398E-03
(PID.TID 0000.0001) %MON advcfl_W_hf_max              =   2.3146091984398E-03
(PID.TID 0000.0001) %MON pe_b_mean                    =  -6.8253569337781E-01
(PID.TID 0000.0001) %MON ke_max                       =   4.3170131770618E-05
(PID.TID 0000.0001) %MON ke_mean                      =   6.4256858848972E-08
(PID.TID 0000.0001) %MON ke_vol                       =   4.6182953982236E+12
(PID.TID 0000.0001) // =======================================================
(PID.TID 0000.0001) // End MONITOR dynamic field statistics
(PID.TID 0000.0001) // =======================================================
(PID.TID 0000.0001) // =======================================================
(PID.TID 0000.0001) // Begin OBCS MONITOR field statistics
(PID.TID 0000.0001) // =======================================================
(PID.TID 0000.0001) %MON obc_N_vVel_max               =  -6.3216191155680E-08
(PID.TID 0000.0001) %MON obc_N_vVel_min               =  -6.3216191155680E-08
(PID.TID 0000.0001) %MON obc_N_vVel_mean              =  -6.3216191155680E-08
(PID.TID 0000.0001) %MON obc_N_vVel_sd                =   1.1614439925920E-14
(PID.TID 0000.0001) %MON obc_N_vVel_Int               =  -4.1722686162749E+00
(PID.TID 0000.0001) // =======================================================
(PID.TID 0000.0001) // End OBCS MONITOR field statistics
(PID.TID 0000.0001) // =======================================================
 cg2d: Sum(rhs),rhsMax =   3.01083478514537E+00  4.53047538288926E+02
(PID.TID 0000.0001)      cg2d_init_res =   1.68457232234410E-06
(PID.TID 0000.0001)      cg2d_iters(min,last) =      -1      72
(PID.TID 0000.0001)      cg2d_last_res =   9.16584303049843E-12
(PID.TID 0000.0001) // =======================================================
(PID.TID 0000.0001) // Begin MONITOR dynamic field statistics
(PID.TID 0000.0001) // =======================================================
(PID.TID 0000.0001) %MON time_tsnumber                =                   784
(PID.TID 0000.0001) %MON time_secondsf                =   7.8400000000000E+04
(PID.TID 0000.0001) %MON dynstat_eta_max              =   5.7976435448380E+00
(PID.TID 0000.0001) %MON dynstat_eta_min              =  -1.4174641399413E+01
(PID.TID 0000.0001) %MON dynstat_eta_mean             =  -2.5260209029718E+00
(PID.TID 0000.0001) %MON dynstat_eta_sd               =   4.9416473934600E+00
(PID.TID 0000.0001) %MON dynstat_eta_del2             =   1.9058237144873E-01
(PID.TID 0000.0001) %MON dynstat_uvel_max             =   3.3771198681585E-03
(PID.TID 0000.0001) %MON dynstat_uvel_min             =  -1.1893280631171E-02
(PID.TID 0000.0001) %MON dynstat_uvel_mean            =  -1.1368448480913E-09
(PID.TID 0000.0001) %MON dynstat_uvel_sd              =   3.1304520627948E-04
(PID.TID 0000.0001) %MON dynstat_uvel_del2            =   5.2828215761745E-07
(PID.TID 0000.0001) %MON dynstat_vvel_max             =   9.7487734136616E-03
(PID.TID 0000.0001) %MON dynstat_vvel_min             =  -3.3548867284212E-03
(PID.TID 0000.0001) %MON dynstat_vvel_mean            =  -4.7769857760599E-08
(PID.TID 0000.0001) %MON dynstat_vvel_sd              =   1.8171626715601E-04
(PID.TID 0000.0001) %MON dynstat_vvel_del2            =   4.9250104496861E-07
(PID.TID 0000.0001) %MON dynstat_wvel_max             =   4.6435106333152E-04
(PID.TID 0000.0001) %MON dynstat_wvel_min             =  -4.5774657233020E-04
(PID.TID 0000.0001) %MON dynstat_wvel_mean            =   1.8651746685461E-10
(PID.TID 0000.0001) %MON dynstat_wvel_sd              =   1.0646006929799E-05
(PID.TID 0000.0001) %MON dynstat_wvel_del2            =   4.3302483518251E-08
(PID.TID 0000.0001) %MON dynstat_theta_max            =   1.2000000000000E+00
(PID.TID 0000.0001) %MON dynstat_theta_min            =  -1.0000000000000E+00
(PID.TID 0000.0001) %MON dynstat_theta_mean           =   5.6531784531424E-01
(PID.TID 0000.0001) %MON dynstat_theta_sd             =   8.4901791784399E-01
(PID.TID 0000.0001) %MON dynstat_theta_del2           =   1.3768702571880E-06
(PID.TID 0000.0001) %MON dynstat_salt_max             =   3.4700000000000E+01
(PID.TID 0000.0001) %MON dynstat_salt_min             =   3.4000000000000E+01
(PID.TID 0000.0001) %MON dynstat_salt_mean            =   3.4498040914403E+01
(PID.TID 0000.0001) %MON dynstat_salt_sd              =   2.7014189129196E-01
(PID.TID 0000.0001) %MON dynstat_salt_del2            =   5.4047237935815E-07
(PID.TID 0000.0001) %MON advcfl_uvel_max              =   1.1893280631171E-03
(PID.TID 0000.0001) %MON advcfl_vvel_max              =   9.7487734136616E-04
(PID.TID 0000.0001) %MON advcfl_wvel_max              =   2.3217553166576E-03
(PID.TID 0000.0001) %MON advcfl_W_hf_max              =   2.3217553166576E-03
(PID.TID 0000.0001) %MON pe_b_mean                    =  -6.8253479110810E-01
(PID.TID 0000.0001) %MON ke_max                       =   4.3408088870556E-05
(PID.TID 0000.0001) %MON ke_mean                      =   6.4587441169286E-08
(PID.TID 0000.0001) %MON ke_vol                       =   4.6182954170144E+12
(PID.TID 0000.0001) // =======================================================
(PID.TID 0000.0001) // End MONITOR dynamic field statistics
(PID.TID 0000.0001) // =======================================================
(PID.TID 0000.0001) // =======================================================
(PID.TID 0000.0001) // Begin OBCS MONITOR field statistics
(PID.TID 0000.0001) // =======================================================
(PID.TID 0000.0001) %MON obc_N_vVel_max               =  -6.3253044405418E-08
(PID.TID 0000.0001) %MON obc_N_vVel_min               =  -6.3253044405420E-08
(PID.TID 0000.0001) %MON obc_N_vVel_mean              =  -6.3253044405420E-08
(PID.TID 0000.0001) %MON obc_N_vVel_sd                =  -2.9187853493177E-28
(PID.TID 0000.0001) %MON obc_N_vVel_Int               =  -4.1747009307577E+00
(PID.TID 0000.0001) // =======================================================
(PID.TID 0000.0001) // End OBCS MONITOR field statistics
(PID.TID 0000.0001) // =======================================================
 cg2d: Sum(rhs),rhsMax =   3.01083105632940E+00  4.53047530118626E+02
(PID.TID 0000.0001)      cg2d_init_res =   1.69317101589280E-06
(PID.TID 0000.0001)      cg2d_iters(min,last) =      -1      72
(PID.TID 0000.0001)      cg2d_last_res =   9.18981347388207E-12
(PID.TID 0000.0001) // =======================================================
(PID.TID 0000.0001) // Begin MONITOR dynamic field statistics
(PID.TID 0000.0001) // =======================================================
(PID.TID 0000.0001) %MON time_tsnumber                =                   785
(PID.TID 0000.0001) %MON time_secondsf                =   7.8500000000000E+04
(PID.TID 0000.0001) %MON dynstat_eta_max              =   5.7976463598665E+00
(PID.TID 0000.0001) %MON dynstat_eta_min              =  -1.4174636299175E+01
(PID.TID 0000.0001) %MON dynstat_eta_mean             =  -2.5260177290268E+00
(PID.TID 0000.0001) %MON dynstat_eta_sd               =   4.9416464248979E+00
(PID.TID 0000.0001) %MON dynstat_eta_del2             =   1.9058237815722E-01
(PID.TID 0000.0001) %MON dynstat_uvel_max             =   3.3822890441844E-03
(PID.TID 0000.0001) %MON dynstat_uvel_min             =  -1.1926099416701E-02
(PID.TID 0000.0001) %MON dynstat_uvel_mean            =  -1.1383361764455E-09
(PID.TID 0000.0001) %MON dynstat_uvel_sd              =   3.1387147346145E-04
(PID.TID 0000.0001) %MON dynstat_uvel_del2            =   5.2946143392131E-07
(PID.TID 0000.0001) %MON dynstat_vvel_max             =   9.7684313689024E-03
(PID.TID 0000.0001) %MON dynstat_vvel_min             =  -3.3636849965166E-03
(PID.TID 0000.0001) %MON dynstat_vvel_mean            =  -4.7749482341312E-08
(PID.TID 0000.0001) %MON dynstat_vvel_sd              =   1.8214855338103E-04
(PID.TID 0000.0001) %MON dynstat_vvel_del2            =   4.9362987117289E-07
(PID.TID 0000.0001) %MON dynstat_wvel_max             =   4.6578342325042E-04
(PID.TID 0000.0001) %MON dynstat_wvel_min             =  -4.5931234212352E-04
(PID.TID 0000.0001) %MON dynstat_wvel_mean            =   1.8691612563061E-10
(PID.TID 0000.0001) %MON dynstat_wvel_sd              =   1.0719256885862E-05
(PID.TID 0000.0001) %MON dynstat_wvel_del2            =   4.3876533442147E-08
(PID.TID 0000.0001) %MON dynstat_theta_max            =   1.2000000000000E+00
(PID.TID 0000.0001) %MON dynstat_theta_min            =  -1.0000000000000E+00
(PID.TID 0000.0001) %MON dynstat_theta_mean           =   5.6531749884710E-01
(PID.TID 0000.0001) %MON dynstat_theta_sd             =   8.4901778710192E-01
(PID.TID 0000.0001) %MON dynstat_theta_del2           =   1.3795059186891E-06
(PID.TID 0000.0001) %MON dynstat_salt_max             =   3.4700000000000E+01
(PID.TID 0000.0001) %MON dynstat_salt_min             =   3.4000000000000E+01
(PID.TID 0000.0001) %MON dynstat_salt_mean            =   3.4498040776488E+01
(PID.TID 0000.0001) %MON dynstat_salt_sd              =   2.7014184402613E-01
(PID.TID 0000.0001) %MON dynstat_salt_del2            =   5.4155682902695E-07
(PID.TID 0000.0001) %MON advcfl_uvel_max              =   1.1926099416701E-03
(PID.TID 0000.0001) %MON advcfl_vvel_max              =   9.7684313689024E-04
(PID.TID 0000.0001) %MON advcfl_wvel_max              =   2.3289171162521E-03
(PID.TID 0000.0001) %MON advcfl_W_hf_max              =   2.3289171162521E-03
(PID.TID 0000.0001) %MON pe_b_mean                    =  -6.8253388721175E-01
(PID.TID 0000.0001) %MON ke_max                       =   4.3647206894106E-05
(PID.TID 0000.0001) %MON ke_mean                      =   6.4920217157261E-08
(PID.TID 0000.0001) %MON ke_vol                       =   4.6182954358363E+12
(PID.TID 0000.0001) // =======================================================
(PID.TID 0000.0001) // End MONITOR dynamic field statistics
(PID.TID 0000.0001) // =======================================================
(PID.TID 0000.0001) // =======================================================
(PID.TID 0000.0001) // Begin OBCS MONITOR field statistics
(PID.TID 0000.0001) // =======================================================
(PID.TID 0000.0001) %MON obc_N_vVel_max               =  -6.3276691975181E-08
(PID.TID 0000.0001) %MON obc_N_vVel_min               =  -6.3276691975182E-08
(PID.TID 0000.0001) %MON obc_N_vVel_mean              =  -6.3276691975181E-08
(PID.TID 0000.0001) %MON obc_N_vVel_sd                =   1.3730905153988E-14
(PID.TID 0000.0001) %MON obc_N_vVel_Int               =  -4.1762616703619E+00
(PID.TID 0000.0001) // =======================================================
(PID.TID 0000.0001) // End OBCS MONITOR field statistics
(PID.TID 0000.0001) // =======================================================
 cg2d: Sum(rhs),rhsMax =   3.01082732111869E+00  4.53047521963736E+02
(PID.TID 0000.0001)      cg2d_init_res =   1.70206068160212E-06
(PID.TID 0000.0001)      cg2d_iters(min,last) =      -1      72
(PID.TID 0000.0001)      cg2d_last_res =   9.21413461658045E-12
(PID.TID 0000.0001) // =======================================================
(PID.TID 0000.0001) // Begin MONITOR dynamic field statistics
(PID.TID 0000.0001) // =======================================================
(PID.TID 0000.0001) %MON time_tsnumber                =                   786
(PID.TID 0000.0001) %MON time_secondsf                =   7.8600000000000E+04
(PID.TID 0000.0001) %MON dynstat_eta_max              =   5.7976491739175E+00
(PID.TID 0000.0001) %MON dynstat_eta_min              =  -1.4174631184529E+01
(PID.TID 0000.0001) %MON dynstat_eta_mean             =  -2.5260145498028E+00
(PID.TID 0000.0001) %MON dynstat_eta_sd               =   4.9416454549308E+00
(PID.TID 0000.0001) %MON dynstat_eta_del2             =   1.9058238488764E-01
(PID.TID 0000.0001) %MON dynstat_uvel_max             =   3.3874592938048E-03
(PID.TID 0000.0001) %MON dynstat_uvel_min             =  -1.1958987712501E-02
(PID.TID 0000.0001) %MON dynstat_uvel_mean            =  -1.1395830057650E-09
(PID.TID 0000.0001) %MON dynstat_uvel_sd              =   3.1470076757660E-04
(PID.TID 0000.0001) %MON dynstat_uvel_del2            =   5.3064395568564E-07
(PID.TID 0000.0001) %MON dynstat_vvel_max             =   9.7881152119434E-03
(PID.TID 0000.0001) %MON dynstat_vvel_min             =  -3.3724980717267E-03
(PID.TID 0000.0001) %MON dynstat_vvel_mean            =  -4.7721236466893E-08
(PID.TID 0000.0001) %MON dynstat_vvel_sd              =   1.8258203772834E-04
(PID.TID 0000.0001) %MON dynstat_vvel_del2            =   4.9475761668991E-07
(PID.TID 0000.0001) %MON dynstat_wvel_max             =   4.6721892467138E-04
(PID.TID 0000.0001) %MON dynstat_wvel_min             =  -4.6088324067588E-04
(PID.TID 0000.0001) %MON dynstat_wvel_mean            =   1.8728714147866E-10
(PID.TID 0000.0001) %MON dynstat_wvel_sd              =   1.0791180513929E-05
(PID.TID 0000.0001) %MON dynstat_wvel_del2            =   4.4442917189885E-08
(PID.TID 0000.0001) %MON dynstat_theta_max            =   1.2000000000000E+00
(PID.TID 0000.0001) %MON dynstat_theta_min            =  -1.0000000000000E+00
(PID.TID 0000.0001) %MON dynstat_theta_mean           =   5.6531715176983E-01
(PID.TID 0000.0001) %MON dynstat_theta_sd             =   8.4901765602911E-01
(PID.TID 0000.0001) %MON dynstat_theta_del2           =   1.3821629283883E-06
(PID.TID 0000.0001) %MON dynstat_salt_max             =   3.4700000000000E+01
(PID.TID 0000.0001) %MON dynstat_salt_min             =   3.4000000000000E+01
(PID.TID 0000.0001) %MON dynstat_salt_mean            =   3.4498040638331E+01
(PID.TID 0000.0001) %MON dynstat_salt_sd              =   2.7014179663027E-01
(PID.TID 0000.0001) %MON dynstat_salt_del2            =   5.4264777838293E-07
(PID.TID 0000.0001) %MON advcfl_uvel_max              =   1.1958987712501E-03
(PID.TID 0000.0001) %MON advcfl_vvel_max              =   9.7881152119434E-04
(PID.TID 0000.0001) %MON advcfl_wvel_max              =   2.3360946233569E-03
(PID.TID 0000.0001) %MON advcfl_W_hf_max              =   2.3360946233569E-03
(PID.TID 0000.0001) %MON pe_b_mean                    =  -6.8253298168330E-01
(PID.TID 0000.0001) %MON ke_max                       =   4.3887490174947E-05
(PID.TID 0000.0001) %MON ke_mean                      =   6.5255003308999E-08
(PID.TID 0000.0001) %MON ke_vol                       =   4.6182954546896E+12
(PID.TID 0000.0001) // =======================================================
(PID.TID 0000.0001) // End MONITOR dynamic field statistics
(PID.TID 0000.0001) // =======================================================
(PID.TID 0000.0001) // =======================================================
(PID.TID 0000.0001) // Begin OBCS MONITOR field statistics
(PID.TID 0000.0001) // =======================================================
(PID.TID 0000.0001) %MON obc_N_vVel_max               =  -6.3291519937365E-08
(PID.TID 0000.0001) %MON obc_N_vVel_min               =  -6.3291519937367E-08
(PID.TID 0000.0001) %MON obc_N_vVel_mean              =  -6.3291519937367E-08
(PID.TID 0000.0001) %MON obc_N_vVel_sd                =  -3.1554436208840E-28
(PID.TID 0000.0001) %MON obc_N_vVel_Int               =  -4.1772403158662E+00
(PID.TID 0000.0001) // =======================================================
(PID.TID 0000.0001) // End OBCS MONITOR field statistics
(PID.TID 0000.0001) // =======================================================
 cg2d: Sum(rhs),rhsMax =   3.01082357949458E+00  4.53047513823738E+02
(PID.TID 0000.0001)      cg2d_init_res =   1.71069742941928E-06
(PID.TID 0000.0001)      cg2d_iters(min,last) =      -1      72
(PID.TID 0000.0001)      cg2d_last_res =   9.23848054129172E-12
(PID.TID 0000.0001) // =======================================================
(PID.TID 0000.0001) // Begin MONITOR dynamic field statistics
(PID.TID 0000.0001) // =======================================================
(PID.TID 0000.0001) %MON time_tsnumber                =                   787
(PID.TID 0000.0001) %MON time_secondsf                =   7.8700000000000E+04
(PID.TID 0000.0001) %MON dynstat_eta_max              =   5.7976519868359E+00
(PID.TID 0000.0001) %MON dynstat_eta_min              =  -1.4174626055323E+01
(PID.TID 0000.0001) %MON dynstat_eta_mean             =  -2.5260113652813E+00
(PID.TID 0000.0001) %MON dynstat_eta_sd               =   4.9416444835472E+00
(PID.TID 0000.0001) %MON dynstat_eta_del2             =   1.9058239163992E-01
(PID.TID 0000.0001) %MON dynstat_uvel_max             =   3.3926305634537E-03
(PID.TID 0000.0001) %MON dynstat_uvel_min             =  -1.1991945557384E-02
(PID.TID 0000.0001) %MON dynstat_uvel_mean            =  -1.1405457911628E-09
(PID.TID 0000.0001) %MON dynstat_uvel_sd              =   3.1553309285938E-04
(PID.TID 0000.0001) %MON dynstat_uvel_del2            =   5.3182975623121E-07
(PID.TID 0000.0001) %MON dynstat_vvel_max             =   9.8078249060971E-03
(PID.TID 0000.0001) %MON dynstat_vvel_min             =  -3.3813259975259E-03
(PID.TID 0000.0001) %MON dynstat_vvel_mean            =  -4.7691046080701E-08
(PID.TID 0000.0001) %MON dynstat_vvel_sd              =   1.8301568889397E-04
(PID.TID 0000.0001) %MON dynstat_vvel_del2            =   4.9587202606054E-07
(PID.TID 0000.0001) %MON dynstat_wvel_max             =   4.6865757283194E-04
(PID.TID 0000.0001) %MON dynstat_wvel_min             =  -4.6245927552175E-04
(PID.TID 0000.0001) %MON dynstat_wvel_mean            =   1.8762569692111E-10
(PID.TID 0000.0001) %MON dynstat_wvel_sd              =   1.0856199986497E-05
(PID.TID 0000.0001) %MON dynstat_wvel_del2            =   4.4954386991584E-08
(PID.TID 0000.0001) %MON dynstat_theta_max            =   1.2000000000000E+00
(PID.TID 0000.0001) %MON dynstat_theta_min            =  -1.0000000000000E+00
(PID.TID 0000.0001) %MON dynstat_theta_mean           =   5.6531680407183E-01
(PID.TID 0000.0001) %MON dynstat_theta_sd             =   8.4901752463392E-01
(PID.TID 0000.0001) %MON dynstat_theta_del2           =   1.3848544507100E-06
(PID.TID 0000.0001) %MON dynstat_salt_max             =   3.4700000000000E+01
(PID.TID 0000.0001) %MON dynstat_salt_min             =   3.4000000000000E+01
(PID.TID 0000.0001) %MON dynstat_salt_mean            =   3.4498040499928E+01
(PID.TID 0000.0001) %MON dynstat_salt_sd              =   2.7014174910671E-01
(PID.TID 0000.0001) %MON dynstat_salt_del2            =   5.4374862365326E-07
(PID.TID 0000.0001) %MON advcfl_uvel_max              =   1.1991945557384E-03
(PID.TID 0000.0001) %MON advcfl_vvel_max              =   9.8078249060971E-04
(PID.TID 0000.0001) %MON advcfl_wvel_max              =   2.3432878641597E-03
(PID.TID 0000.0001) %MON advcfl_W_hf_max              =   2.3432878641597E-03
(PID.TID 0000.0001) %MON pe_b_mean                    =  -6.8253207451603E-01
(PID.TID 0000.0001) %MON ke_max                       =   4.4128943051484E-05
(PID.TID 0000.0001) %MON ke_mean                      =   6.5591621143834E-08
(PID.TID 0000.0001) %MON ke_vol                       =   4.6182954735742E+12
(PID.TID 0000.0001) // =======================================================
(PID.TID 0000.0001) // End MONITOR dynamic field statistics
(PID.TID 0000.0001) // =======================================================
(PID.TID 0000.0001) // =======================================================
(PID.TID 0000.0001) // Begin OBCS MONITOR field statistics
(PID.TID 0000.0001) // =======================================================
(PID.TID 0000.0001) %MON obc_N_vVel_max               =  -6.3302617885203E-08
(PID.TID 0000.0001) %MON obc_N_vVel_min               =  -6.3302617885205E-08
(PID.TID 0000.0001) %MON obc_N_vVel_mean              =  -6.3302617885205E-08
(PID.TID 0000.0001) %MON obc_N_vVel_sd                =  -2.5401321148117E-28
(PID.TID 0000.0001) %MON obc_N_vVel_Int               =  -4.1779727804236E+00
(PID.TID 0000.0001) // =======================================================
(PID.TID 0000.0001) // End OBCS MONITOR field statistics
(PID.TID 0000.0001) // =======================================================
 cg2d: Sum(rhs),rhsMax =   3.01081983143346E+00  4.53047505698101E+02
(PID.TID 0000.0001)      cg2d_init_res =   1.71860024386624E-06
(PID.TID 0000.0001)      cg2d_iters(min,last) =      -1      72
(PID.TID 0000.0001)      cg2d_last_res =   9.26264461074308E-12
(PID.TID 0000.0001) // =======================================================
(PID.TID 0000.0001) // Begin MONITOR dynamic field statistics
(PID.TID 0000.0001) // =======================================================
(PID.TID 0000.0001) %MON time_tsnumber                =                   788
(PID.TID 0000.0001) %MON time_secondsf                =   7.8800000000000E+04
(PID.TID 0000.0001) %MON dynstat_eta_max              =   5.7976547984986E+00
(PID.TID 0000.0001) %MON dynstat_eta_min              =  -1.4174620911410E+01
(PID.TID 0000.0001) %MON dynstat_eta_mean             =  -2.5260081754395E+00
(PID.TID 0000.0001) %MON dynstat_eta_sd               =   4.9416435107344E+00
(PID.TID 0000.0001) %MON dynstat_eta_del2             =   1.9058239841408E-01
(PID.TID 0000.0001) %MON dynstat_uvel_max             =   3.3978027995119E-03
(PID.TID 0000.0001) %MON dynstat_uvel_min             =  -1.2024972989435E-02
(PID.TID 0000.0001) %MON dynstat_uvel_mean            =  -1.1412025771958E-09
(PID.TID 0000.0001) %MON dynstat_uvel_sd              =   3.1636845367395E-04
(PID.TID 0000.0001) %MON dynstat_uvel_del2            =   5.3301886776873E-07
(PID.TID 0000.0001) %MON dynstat_vvel_max             =   9.8275604138667E-03
(PID.TID 0000.0001) %MON dynstat_vvel_min             =  -3.3901688175630E-03
(PID.TID 0000.0001) %MON dynstat_vvel_mean            =  -4.7665308432474E-08
(PID.TID 0000.0001) %MON dynstat_vvel_sd              =   1.8344860514674E-04
(PID.TID 0000.0001) %MON dynstat_vvel_del2            =   4.9696252220449E-07
(PID.TID 0000.0001) %MON dynstat_wvel_max             =   4.7009937293888E-04
(PID.TID 0000.0001) %MON dynstat_wvel_min             =  -4.6404045422531E-04
(PID.TID 0000.0001) %MON dynstat_wvel_mean            =   1.8792836548233E-10
(PID.TID 0000.0001) %MON dynstat_wvel_sd              =   1.0909547665549E-05
(PID.TID 0000.0001) %MON dynstat_wvel_del2            =   4.5370730081507E-08
(PID.TID 0000.0001) %MON dynstat_theta_max            =   1.2000000000000E+00
(PID.TID 0000.0001) %MON dynstat_theta_min            =  -1.0000000000000E+00
(PID.TID 0000.0001) %MON dynstat_theta_mean           =   5.6531645574370E-01
(PID.TID 0000.0001) %MON dynstat_theta_sd             =   8.4901739292395E-01
(PID.TID 0000.0001) %MON dynstat_theta_del2           =   1.3875913297997E-06
(PID.TID 0000.0001) %MON dynstat_salt_max             =   3.4700000000000E+01
(PID.TID 0000.0001) %MON dynstat_salt_min             =   3.4000000000000E+01
(PID.TID 0000.0001) %MON dynstat_salt_mean            =   3.4498040361277E+01
(PID.TID 0000.0001) %MON dynstat_salt_sd              =   2.7014170145808E-01
(PID.TID 0000.0001) %MON dynstat_salt_del2            =   5.4486216418141E-07
(PID.TID 0000.0001) %MON advcfl_uvel_max              =   1.2024972989435E-03
(PID.TID 0000.0001) %MON advcfl_vvel_max              =   9.8275604138667E-04
(PID.TID 0000.0001) %MON advcfl_wvel_max              =   2.3504968646944E-03
(PID.TID 0000.0001) %MON advcfl_W_hf_max              =   2.3504968646944E-03
(PID.TID 0000.0001) %MON pe_b_mean                    =  -6.8253116570235E-01
(PID.TID 0000.0001) %MON ke_max                       =   4.4371569867291E-05
(PID.TID 0000.0001) %MON ke_mean                      =   6.5929914244139E-08
(PID.TID 0000.0001) %MON ke_vol                       =   4.6182954924902E+12
(PID.TID 0000.0001) // =======================================================
(PID.TID 0000.0001) // End MONITOR dynamic field statistics
(PID.TID 0000.0001) // =======================================================
(PID.TID 0000.0001) // =======================================================
(PID.TID 0000.0001) // Begin OBCS MONITOR field statistics
(PID.TID 0000.0001) // =======================================================
(PID.TID 0000.0001) %MON obc_N_vVel_max               =  -6.3315601844269E-08
(PID.TID 0000.0001) %MON obc_N_vVel_min               =  -6.3315601844271E-08
(PID.TID 0000.0001) %MON obc_N_vVel_mean              =  -6.3315601844271E-08
(PID.TID 0000.0001) %MON obc_N_vVel_sd                =  -2.9030081312133E-28
(PID.TID 0000.0001) %MON obc_N_vVel_Int               =  -4.1788297217219E+00
(PID.TID 0000.0001) // =======================================================
(PID.TID 0000.0001) // End OBCS MONITOR field statistics
(PID.TID 0000.0001) // =======================================================
 cg2d: Sum(rhs),rhsMax =   3.01081607690419E+00  4.53047497586351E+02
(PID.TID 0000.0001)      cg2d_init_res =   1.72535416109054E-06
(PID.TID 0000.0001)      cg2d_iters(min,last) =      -1      72
(PID.TID 0000.0001)      cg2d_last_res =   9.28638350382294E-12
(PID.TID 0000.0001) // =======================================================
(PID.TID 0000.0001) // Begin MONITOR dynamic field statistics
(PID.TID 0000.0001) // =======================================================
(PID.TID 0000.0001) %MON time_tsnumber                =                   789
(PID.TID 0000.0001) %MON time_secondsf                =   7.8900000000000E+04
(PID.TID 0000.0001) %MON dynstat_eta_max              =   5.7976576087977E+00
(PID.TID 0000.0001) %MON dynstat_eta_min              =  -1.4174615752616E+01
(PID.TID 0000.0001) %MON dynstat_eta_mean             =  -2.5260049802485E+00
(PID.TID 0000.0001) %MON dynstat_eta_sd               =   4.9416425364799E+00
(PID.TID 0000.0001) %MON dynstat_eta_del2             =   1.9058240521026E-01
(PID.TID 0000.0001) %MON dynstat_uvel_max             =   3.4029759482639E-03
(PID.TID 0000.0001) %MON dynstat_uvel_min             =  -1.2058070046030E-02
(PID.TID 0000.0001) %MON dynstat_uvel_mean            =  -1.1415453421559E-09
(PID.TID 0000.0001) %MON dynstat_uvel_sd              =   3.1720685441059E-04
(PID.TID 0000.0001) %MON dynstat_uvel_del2            =   5.3421132019357E-07
(PID.TID 0000.0001) %MON dynstat_vvel_max             =   9.8473216971675E-03
(PID.TID 0000.0001) %MON dynstat_vvel_min             =  -3.3990265756279E-03
(PID.TID 0000.0001) %MON dynstat_vvel_mean            =  -4.7650681812401E-08
(PID.TID 0000.0001) %MON dynstat_vvel_sd              =   1.8388009300346E-04
(PID.TID 0000.0001) %MON dynstat_vvel_del2            =   4.9802112626614E-07
(PID.TID 0000.0001) %MON dynstat_wvel_max             =   4.7154433020767E-04
(PID.TID 0000.0001) %MON dynstat_wvel_min             =  -4.6562678440492E-04
(PID.TID 0000.0001) %MON dynstat_wvel_mean            =   1.8819308188258E-10
(PID.TID 0000.0001) %MON dynstat_wvel_sd              =   1.0947631366007E-05
(PID.TID 0000.0001) %MON dynstat_wvel_del2            =   4.5661464103711E-08
(PID.TID 0000.0001) %MON dynstat_theta_max            =   1.2000000000000E+00
(PID.TID 0000.0001) %MON dynstat_theta_min            =  -1.0000000000000E+00
(PID.TID 0000.0001) %MON dynstat_theta_mean           =   5.6531610677722E-01
(PID.TID 0000.0001) %MON dynstat_theta_sd             =   8.4901726090683E-01
(PID.TID 0000.0001) %MON dynstat_theta_del2           =   1.3903811277369E-06
(PID.TID 0000.0001) %MON dynstat_salt_max             =   3.4700000000000E+01
(PID.TID 0000.0001) %MON dynstat_salt_min             =   3.4000000000000E+01
(PID.TID 0000.0001) %MON dynstat_salt_mean            =   3.4498040222373E+01
(PID.TID 0000.0001) %MON dynstat_salt_sd              =   2.7014165368633E-01
(PID.TID 0000.0001) %MON dynstat_salt_del2            =   5.4599034880221E-07
(PID.TID 0000.0001) %MON advcfl_uvel_max              =   1.2058070046030E-03
(PID.TID 0000.0001) %MON advcfl_vvel_max              =   9.8473216971675E-04
(PID.TID 0000.0001) %MON advcfl_wvel_max              =   2.3577216510383E-03
(PID.TID 0000.0001) %MON advcfl_W_hf_max              =   2.3577216510383E-03
(PID.TID 0000.0001) %MON pe_b_mean                    =  -6.8253025523355E-01
(PID.TID 0000.0001) %MON ke_max                       =   4.4615374971336E-05
(PID.TID 0000.0001) %MON ke_mean                      =   6.6269762972779E-08
(PID.TID 0000.0001) %MON ke_vol                       =   4.6182955114379E+12
(PID.TID 0000.0001) // =======================================================
(PID.TID 0000.0001) // End MONITOR dynamic field statistics
(PID.TID 0000.0001) // =======================================================
(PID.TID 0000.0001) // =======================================================
(PID.TID 0000.0001) // Begin OBCS MONITOR field statistics
(PID.TID 0000.0001) // =======================================================
(PID.TID 0000.0001) %MON obc_N_vVel_max               =  -6.3336422344351E-08
(PID.TID 0000.0001) %MON obc_N_vVel_min               =  -6.3336422344352E-08
(PID.TID 0000.0001) %MON obc_N_vVel_mean              =  -6.3336422344351E-08
(PID.TID 0000.0001) %MON obc_N_vVel_sd                =   1.0768591043748E-14
(PID.TID 0000.0001) %MON obc_N_vVel_Int               =  -4.1802038747272E+00
(PID.TID 0000.0001) // =======================================================
(PID.TID 0000.0001) // End OBCS MONITOR field statistics
(PID.TID 0000.0001) // =======================================================
 cg2d: Sum(rhs),rhsMax =   3.01081231586701E+00  4.53047489488073E+02
(PID.TID 0000.0001)      cg2d_init_res =   1.73065523451003E-06
(PID.TID 0000.0001)      cg2d_iters(min,last) =      -1      72
(PID.TID 0000.0001)      cg2d_last_res =   9.30939572890310E-12
(PID.TID 0000.0001) // =======================================================
(PID.TID 0000.0001) // Begin MONITOR dynamic field statistics
(PID.TID 0000.0001) // =======================================================
(PID.TID 0000.0001) %MON time_tsnumber                =                   790
(PID.TID 0000.0001) %MON time_secondsf                =   7.9000000000000E+04
(PID.TID 0000.0001) %MON dynstat_eta_max              =   5.7976604176403E+00
(PID.TID 0000.0001) %MON dynstat_eta_min              =  -1.4174610578761E+01
(PID.TID 0000.0001) %MON dynstat_eta_mean             =  -2.5260017796728E+00
(PID.TID 0000.0001) %MON dynstat_eta_sd               =   4.9416415607693E+00
(PID.TID 0000.0001) %MON dynstat_eta_del2             =   1.9058241202864E-01
(PID.TID 0000.0001) %MON dynstat_uvel_max             =   3.4081499561118E-03
(PID.TID 0000.0001) %MON dynstat_uvel_min             =  -1.2091236763836E-02
(PID.TID 0000.0001) %MON dynstat_uvel_mean            =  -1.1415794016318E-09
(PID.TID 0000.0001) %MON dynstat_uvel_sd              =   3.1804829939699E-04
(PID.TID 0000.0001) %MON dynstat_uvel_del2            =   5.3540714019203E-07
(PID.TID 0000.0001) %MON dynstat_vvel_max             =   9.8671087173239E-03
(PID.TID 0000.0001) %MON dynstat_vvel_min             =  -3.4078993155555E-03
(PID.TID 0000.0001) %MON dynstat_vvel_mean            =  -4.7653867567950E-08
(PID.TID 0000.0001) %MON dynstat_vvel_sd              =   1.8430972513970E-04
(PID.TID 0000.0001) %MON dynstat_vvel_del2            =   4.9904312548188E-07
(PID.TID 0000.0001) %MON dynstat_wvel_max             =   4.7299244982003E-04
(PID.TID 0000.0001) %MON dynstat_wvel_min             =  -4.6721827368961E-04
(PID.TID 0000.0001) %MON dynstat_wvel_mean            =   1.8841919968742E-10
(PID.TID 0000.0001) %MON dynstat_wvel_sd              =   1.0968283422034E-05
(PID.TID 0000.0001) %MON dynstat_wvel_del2            =   4.5807563422994E-08
(PID.TID 0000.0001) %MON dynstat_theta_max            =   1.2000000000000E+00
(PID.TID 0000.0001) %MON dynstat_theta_min            =  -1.0000000000000E+00
(PID.TID 0000.0001) %MON dynstat_theta_mean           =   5.6531575716541E-01
(PID.TID 0000.0001) %MON dynstat_theta_sd             =   8.4901712858778E-01
(PID.TID 0000.0001) %MON dynstat_theta_del2           =   1.3932274332514E-06
(PID.TID 0000.0001) %MON dynstat_salt_max             =   3.4700000000000E+01
(PID.TID 0000.0001) %MON dynstat_salt_min             =   3.4000000000000E+01
(PID.TID 0000.0001) %MON dynstat_salt_mean            =   3.4498040083216E+01
(PID.TID 0000.0001) %MON dynstat_salt_sd              =   2.7014160579349E-01
(PID.TID 0000.0001) %MON dynstat_salt_del2            =   5.4713410579258E-07
(PID.TID 0000.0001) %MON advcfl_uvel_max              =   1.2091236763836E-03
(PID.TID 0000.0001) %MON advcfl_vvel_max              =   9.8671087173239E-04
(PID.TID 0000.0001) %MON advcfl_wvel_max              =   2.3649622491001E-03
(PID.TID 0000.0001) %MON advcfl_W_hf_max              =   2.3649622491001E-03
(PID.TID 0000.0001) %MON pe_b_mean                    =  -6.8252934309952E-01
(PID.TID 0000.0001) %MON ke_max                       =   4.4860362717983E-05
(PID.TID 0000.0001) %MON ke_mean                      =   6.6611095576491E-08
(PID.TID 0000.0001) %MON ke_vol                       =   4.6182955304173E+12
(PID.TID 0000.0001) // =======================================================
(PID.TID 0000.0001) // End MONITOR dynamic field statistics
(PID.TID 0000.0001) // =======================================================
(PID.TID 0000.0001) // =======================================================
(PID.TID 0000.0001) // Begin OBCS MONITOR field statistics
(PID.TID 0000.0001) // =======================================================
(PID.TID 0000.0001) %MON obc_N_vVel_max               =  -6.3371175508563E-08
(PID.TID 0000.0001) %MON obc_N_vVel_min               =  -6.3371175508564E-08
(PID.TID 0000.0001) %MON obc_N_vVel_mean              =  -6.3371175508564E-08
(PID.TID 0000.0001) %MON obc_N_vVel_sd                =  -1.0018533496307E-28
(PID.TID 0000.0001) %MON obc_N_vVel_Int               =  -4.1824975835652E+00
(PID.TID 0000.0001) // =======================================================
(PID.TID 0000.0001) // End OBCS MONITOR field statistics
(PID.TID 0000.0001) // =======================================================
 cg2d: Sum(rhs),rhsMax =   3.01080854827584E+00  4.53047481402888E+02
(PID.TID 0000.0001)      cg2d_init_res =   1.73434275660148E-06
(PID.TID 0000.0001)      cg2d_iters(min,last) =      -1      72
(PID.TID 0000.0001)      cg2d_last_res =   9.33164545552207E-12
(PID.TID 0000.0001) // =======================================================
(PID.TID 0000.0001) // Begin MONITOR dynamic field statistics
(PID.TID 0000.0001) // =======================================================
(PID.TID 0000.0001) %MON time_tsnumber                =                   791
(PID.TID 0000.0001) %MON time_secondsf                =   7.9100000000000E+04
(PID.TID 0000.0001) %MON dynstat_eta_max              =   5.7976632249529E+00
(PID.TID 0000.0001) %MON dynstat_eta_min              =  -1.4174605389642E+01
(PID.TID 0000.0001) %MON dynstat_eta_mean             =  -2.5259985736716E+00
(PID.TID 0000.0001) %MON dynstat_eta_sd               =   4.9416405835860E+00
(PID.TID 0000.0001) %MON dynstat_eta_del2             =   1.9058241886935E-01
(PID.TID 0000.0001) %MON dynstat_uvel_max             =   3.4133247692179E-03
(PID.TID 0000.0001) %MON dynstat_uvel_min             =  -1.2124473178784E-02
(PID.TID 0000.0001) %MON dynstat_uvel_mean            =  -1.1413213310823E-09
(PID.TID 0000.0001) %MON dynstat_uvel_sd              =   3.1889279282474E-04
(PID.TID 0000.0001) %MON dynstat_uvel_del2            =   5.3660635074690E-07
(PID.TID 0000.0001) %MON dynstat_vvel_max             =   9.8869214349269E-03
(PID.TID 0000.0001) %MON dynstat_vvel_min             =  -3.4167870813144E-03
(PID.TID 0000.0001) %MON dynstat_vvel_mean            =  -4.7681393418908E-08
(PID.TID 0000.0001) %MON dynstat_vvel_sd              =   1.8473737276941E-04
(PID.TID 0000.0001) %MON dynstat_vvel_del2            =   5.0002743483662E-07
(PID.TID 0000.0001) %MON dynstat_wvel_max             =   4.7444373695815E-04
(PID.TID 0000.0001) %MON dynstat_wvel_min             =  -4.6881492974435E-04
(PID.TID 0000.0001) %MON dynstat_wvel_mean            =   1.8860753511806E-10
(PID.TID 0000.0001) %MON dynstat_wvel_sd              =   1.0970890147440E-05
(PID.TID 0000.0001) %MON dynstat_wvel_del2            =   4.5802341253900E-08
(PID.TID 0000.0001) %MON dynstat_theta_max            =   1.2000000000000E+00
(PID.TID 0000.0001) %MON dynstat_theta_min            =  -1.0000000000000E+00
(PID.TID 0000.0001) %MON dynstat_theta_mean           =   5.6531540690275E-01
(PID.TID 0000.0001) %MON dynstat_theta_sd             =   8.4901699597094E-01
(PID.TID 0000.0001) %MON dynstat_theta_del2           =   1.3961295703253E-06
(PID.TID 0000.0001) %MON dynstat_salt_max             =   3.4700000000000E+01
(PID.TID 0000.0001) %MON dynstat_salt_min             =   3.4000000000000E+01
(PID.TID 0000.0001) %MON dynstat_salt_mean            =   3.4498039943803E+01
(PID.TID 0000.0001) %MON dynstat_salt_sd              =   2.7014155778053E-01
(PID.TID 0000.0001) %MON dynstat_salt_del2            =   5.4829326292643E-07
(PID.TID 0000.0001) %MON advcfl_uvel_max              =   1.2124473178784E-03
(PID.TID 0000.0001) %MON advcfl_vvel_max              =   9.8869214349269E-04
(PID.TID 0000.0001) %MON advcfl_wvel_max              =   2.3722186847908E-03
(PID.TID 0000.0001) %MON advcfl_W_hf_max              =   2.3722186847908E-03
(PID.TID 0000.0001) %MON pe_b_mean                    =  -6.8252842928909E-01
(PID.TID 0000.0001) %MON ke_max                       =   4.5106537466878E-05
(PID.TID 0000.0001) %MON ke_mean                      =   6.6953894724821E-08
(PID.TID 0000.0001) %MON ke_vol                       =   4.6182955494287E+12
(PID.TID 0000.0001) // =======================================================
(PID.TID 0000.0001) // End MONITOR dynamic field statistics
(PID.TID 0000.0001) // =======================================================
(PID.TID 0000.0001) // =======================================================
(PID.TID 0000.0001) // Begin OBCS MONITOR field statistics
(PID.TID 0000.0001) // =======================================================
(PID.TID 0000.0001) %MON obc_N_vVel_max               =  -6.3425923415940E-08
(PID.TID 0000.0001) %MON obc_N_vVel_min               =  -6.3425923415941E-08
(PID.TID 0000.0001) %MON obc_N_vVel_mean              =  -6.3425923415940E-08
(PID.TID 0000.0001) %MON obc_N_vVel_sd                =   1.4043333874307E-14
(PID.TID 0000.0001) %MON obc_N_vVel_Int               =  -4.1861109454520E+00
(PID.TID 0000.0001) // =======================================================
(PID.TID 0000.0001) // End OBCS MONITOR field statistics
(PID.TID 0000.0001) // =======================================================
 cg2d: Sum(rhs),rhsMax =   3.01080477407364E+00  4.53047473330516E+02
(PID.TID 0000.0001)      cg2d_init_res =   1.73639845221117E-06
(PID.TID 0000.0001)      cg2d_iters(min,last) =      -1      72
(PID.TID 0000.0001)      cg2d_last_res =   9.35299927540423E-12
(PID.TID 0000.0001) // =======================================================
(PID.TID 0000.0001) // Begin MONITOR dynamic field statistics
(PID.TID 0000.0001) // =======================================================
(PID.TID 0000.0001) %MON time_tsnumber                =                   792
(PID.TID 0000.0001) %MON time_secondsf                =   7.9200000000000E+04
(PID.TID 0000.0001) %MON dynstat_eta_max              =   5.7976660306749E+00
(PID.TID 0000.0001) %MON dynstat_eta_min              =  -1.4174600185058E+01
(PID.TID 0000.0001) %MON dynstat_eta_mean             =  -2.5259953621954E+00
(PID.TID 0000.0001) %MON dynstat_eta_sd               =   4.9416396049105E+00
(PID.TID 0000.0001) %MON dynstat_eta_del2             =   1.9058242573240E-01
(PID.TID 0000.0001) %MON dynstat_uvel_max             =   3.4185003338774E-03
(PID.TID 0000.0001) %MON dynstat_uvel_min             =  -1.2157779325983E-02
(PID.TID 0000.0001) %MON dynstat_uvel_mean            =  -1.1407902629553E-09
(PID.TID 0000.0001) %MON dynstat_uvel_sd              =   3.1974033869828E-04
(PID.TID 0000.0001) %MON dynstat_uvel_del2            =   5.3780897097208E-07
(PID.TID 0000.0001) %MON dynstat_vvel_max             =   9.9067598101115E-03
(PID.TID 0000.0001) %MON dynstat_vvel_min             =  -3.4256899168392E-03
(PID.TID 0000.0001) %MON dynstat_vvel_mean            =  -4.7739405164075E-08
(PID.TID 0000.0001) %MON dynstat_vvel_sd              =   1.8516321012466E-04
(PID.TID 0000.0001) %MON dynstat_vvel_del2            =   5.0097662611933E-07
(PID.TID 0000.0001) %MON dynstat_wvel_max             =   4.7589819680601E-04
(PID.TID 0000.0001) %MON dynstat_wvel_min             =  -4.7041676033261E-04
(PID.TID 0000.0001) %MON dynstat_wvel_mean            =   1.8876044490907E-10
(PID.TID 0000.0001) %MON dynstat_wvel_sd              =   1.0956403380903E-05
(PID.TID 0000.0001) %MON dynstat_wvel_del2            =   4.5651591839676E-08
(PID.TID 0000.0001) %MON dynstat_theta_max            =   1.2000000000000E+00
(PID.TID 0000.0001) %MON dynstat_theta_min            =  -1.0000000000000E+00
(PID.TID 0000.0001) %MON dynstat_theta_mean           =   5.6531505598492E-01
(PID.TID 0000.0001) %MON dynstat_theta_sd             =   8.4901686305808E-01
(PID.TID 0000.0001) %MON dynstat_theta_del2           =   1.3990826707461E-06
(PID.TID 0000.0001) %MON dynstat_salt_max             =   3.4700000000000E+01
(PID.TID 0000.0001) %MON dynstat_salt_min             =   3.4000000000000E+01
(PID.TID 0000.0001) %MON dynstat_salt_mean            =   3.4498039804132E+01
(PID.TID 0000.0001) %MON dynstat_salt_sd              =   2.7014150964804E-01
(PID.TID 0000.0001) %MON dynstat_salt_del2            =   5.4946657186260E-07
(PID.TID 0000.0001) %MON advcfl_uvel_max              =   1.2157779325983E-03
(PID.TID 0000.0001) %MON advcfl_vvel_max              =   9.9067598101115E-04
(PID.TID 0000.0001) %MON advcfl_wvel_max              =   2.3794909840301E-03
(PID.TID 0000.0001) %MON advcfl_W_hf_max              =   2.3794909840301E-03
(PID.TID 0000.0001) %MON pe_b_mean                    =  -6.8252751378931E-01
(PID.TID 0000.0001) %MON ke_max                       =   4.5353903582449E-05
(PID.TID 0000.0001) %MON ke_mean                      =   6.7298198966693E-08
(PID.TID 0000.0001) %MON ke_vol                       =   4.6182955684724E+12
(PID.TID 0000.0001) // =======================================================
(PID.TID 0000.0001) // End MONITOR dynamic field statistics
(PID.TID 0000.0001) // =======================================================
(PID.TID 0000.0001) // =======================================================
(PID.TID 0000.0001) // Begin OBCS MONITOR field statistics
(PID.TID 0000.0001) // =======================================================
(PID.TID 0000.0001) %MON obc_N_vVel_max               =  -6.3506506318076E-08
(PID.TID 0000.0001) %MON obc_N_vVel_min               =  -6.3506506318078E-08
(PID.TID 0000.0001) %MON obc_N_vVel_mean              =  -6.3506506318078E-08
(PID.TID 0000.0001) %MON obc_N_vVel_sd                =  -1.9721522630525E-28
(PID.TID 0000.0001) %MON obc_N_vVel_Int               =  -4.1914294169931E+00
(PID.TID 0000.0001) // =======================================================
(PID.TID 0000.0001) // End OBCS MONITOR field statistics
(PID.TID 0000.0001) // =======================================================
 cg2d: Sum(rhs),rhsMax =   3.01080099319620E+00  4.53047465270779E+02
(PID.TID 0000.0001)      cg2d_init_res =   1.73694862474332E-06
(PID.TID 0000.0001)      cg2d_iters(min,last) =      -1      72
(PID.TID 0000.0001)      cg2d_last_res =   9.37359598746257E-12
(PID.TID 0000.0001) // =======================================================
(PID.TID 0000.0001) // Begin MONITOR dynamic field statistics
(PID.TID 0000.0001) // =======================================================
(PID.TID 0000.0001) %MON time_tsnumber                =                   793
(PID.TID 0000.0001) %MON time_secondsf                =   7.9300000000000E+04
(PID.TID 0000.0001) %MON dynstat_eta_max              =   5.7976688347777E+00
(PID.TID 0000.0001) %MON dynstat_eta_min              =  -1.4174594964782E+01
(PID.TID 0000.0001) %MON dynstat_eta_mean             =  -2.5259921451894E+00
(PID.TID 0000.0001) %MON dynstat_eta_sd               =   4.9416386247179E+00
(PID.TID 0000.0001) %MON dynstat_eta_del2             =   1.9058243261773E-01
(PID.TID 0000.0001) %MON dynstat_uvel_max             =   3.4236765964817E-03
(PID.TID 0000.0001) %MON dynstat_uvel_min             =  -1.2191155239861E-02
(PID.TID 0000.0001) %MON dynstat_uvel_mean            =  -1.1400178303870E-09
(PID.TID 0000.0001) %MON dynstat_uvel_sd              =   3.2059094080035E-04
(PID.TID 0000.0001) %MON dynstat_uvel_del2            =   5.3901501648970E-07
(PID.TID 0000.0001) %MON dynstat_vvel_max             =   9.9266238026099E-03
(PID.TID 0000.0001) %MON dynstat_vvel_min             =  -3.4346078660823E-03
(PID.TID 0000.0001) %MON dynstat_vvel_mean            =  -4.7833472964730E-08
(PID.TID 0000.0001) %MON dynstat_vvel_sd              =   1.8558769124998E-04
(PID.TID 0000.0001) %MON dynstat_vvel_del2            =   5.0189662781606E-07
(PID.TID 0000.0001) %MON dynstat_wvel_max             =   4.7735583451502E-04
(PID.TID 0000.0001) %MON dynstat_wvel_min             =  -4.7202377322366E-04
(PID.TID 0000.0001) %MON dynstat_wvel_mean            =   1.8888164003788E-10
(PID.TID 0000.0001) %MON dynstat_wvel_sd              =   1.0927238068659E-05
(PID.TID 0000.0001) %MON dynstat_wvel_del2            =   4.5373045182844E-08
(PID.TID 0000.0001) %MON dynstat_theta_max            =   1.2000000000000E+00
(PID.TID 0000.0001) %MON dynstat_theta_min            =  -1.0000000000000E+00
(PID.TID 0000.0001) %MON dynstat_theta_mean           =   5.6531470440904E-01
(PID.TID 0000.0001) %MON dynstat_theta_sd             =   8.4901672984675E-01
(PID.TID 0000.0001) %MON dynstat_theta_del2           =   1.4020781261888E-06
(PID.TID 0000.0001) %MON dynstat_salt_max             =   3.4700000000000E+01
(PID.TID 0000.0001) %MON dynstat_salt_min             =   3.4000000000000E+01
(PID.TID 0000.0001) %MON dynstat_salt_mean            =   3.4498039664202E+01
(PID.TID 0000.0001) %MON dynstat_salt_sd              =   2.7014146139519E-01
(PID.TID 0000.0001) %MON dynstat_salt_del2            =   5.5065180613394E-07
(PID.TID 0000.0001) %MON advcfl_uvel_max              =   1.2191155239861E-03
(PID.TID 0000.0001) %MON advcfl_vvel_max              =   9.9266238026099E-04
(PID.TID 0000.0001) %MON advcfl_wvel_max              =   2.3867791725751E-03
(PID.TID 0000.0001) %MON advcfl_W_hf_max              =   2.3867791725751E-03
(PID.TID 0000.0001) %MON pe_b_mean                    =  -6.8252659658590E-01
(PID.TID 0000.0001) %MON ke_max                       =   4.5602465434818E-05
(PID.TID 0000.0001) %MON ke_mean                      =   6.7644099057115E-08
(PID.TID 0000.0001) %MON ke_vol                       =   4.6182955875486E+12
(PID.TID 0000.0001) // =======================================================
(PID.TID 0000.0001) // End MONITOR dynamic field statistics
(PID.TID 0000.0001) // =======================================================
(PID.TID 0000.0001) // =======================================================
(PID.TID 0000.0001) // Begin OBCS MONITOR field statistics
(PID.TID 0000.0001) // =======================================================
(PID.TID 0000.0001) %MON obc_N_vVel_max               =  -6.3618350303824E-08
(PID.TID 0000.0001) %MON obc_N_vVel_min               =  -6.3618350303826E-08
(PID.TID 0000.0001) %MON obc_N_vVel_mean              =  -6.3618350303826E-08
(PID.TID 0000.0001) %MON obc_N_vVel_sd                =  -3.1475550118318E-28
(PID.TID 0000.0001) %MON obc_N_vVel_Int               =  -4.1988111200525E+00
(PID.TID 0000.0001) // =======================================================
(PID.TID 0000.0001) // End OBCS MONITOR field statistics
(PID.TID 0000.0001) // =======================================================
 cg2d: Sum(rhs),rhsMax =   3.01079720557245E+00  4.53047457223603E+02
(PID.TID 0000.0001)      cg2d_init_res =   1.73625954272892E-06
(PID.TID 0000.0001)      cg2d_iters(min,last) =      -1      72
(PID.TID 0000.0001)      cg2d_last_res =   9.39346855600769E-12
(PID.TID 0000.0001) // =======================================================
(PID.TID 0000.0001) // Begin MONITOR dynamic field statistics
(PID.TID 0000.0001) // =======================================================
(PID.TID 0000.0001) %MON time_tsnumber                =                   794
(PID.TID 0000.0001) %MON time_secondsf                =   7.9400000000000E+04
(PID.TID 0000.0001) %MON dynstat_eta_max              =   5.7976716372256E+00
(PID.TID 0000.0001) %MON dynstat_eta_min              =  -1.4174589728590E+01
(PID.TID 0000.0001) %MON dynstat_eta_mean             =  -2.5259889225936E+00
(PID.TID 0000.0001) %MON dynstat_eta_sd               =   4.9416376429861E+00
(PID.TID 0000.0001) %MON dynstat_eta_del2             =   1.9058243952539E-01
(PID.TID 0000.0001) %MON dynstat_uvel_max             =   3.4288535031806E-03
(PID.TID 0000.0001) %MON dynstat_uvel_min             =  -1.2224600953421E-02
(PID.TID 0000.0001) %MON dynstat_uvel_mean            =  -1.1390387353371E-09
(PID.TID 0000.0001) %MON dynstat_uvel_sd              =   3.2144460266824E-04
(PID.TID 0000.0001) %MON dynstat_uvel_del2            =   5.4022449968189E-07
(PID.TID 0000.0001) %MON dynstat_vvel_max             =   9.9465133715526E-03
(PID.TID 0000.0001) %MON dynstat_vvel_min             =  -3.4435409734890E-03
(PID.TID 0000.0001) %MON dynstat_vvel_mean            =  -4.7968423936416E-08
(PID.TID 0000.0001) %MON dynstat_vvel_sd              =   1.8601150182054E-04
(PID.TID 0000.0001) %MON dynstat_vvel_del2            =   5.0279612763484E-07
(PID.TID 0000.0001) %MON dynstat_wvel_max             =   4.7881665522985E-04
(PID.TID 0000.0001) %MON dynstat_wvel_min             =  -4.7363597624773E-04
(PID.TID 0000.0001) %MON dynstat_wvel_mean            =   1.8897596757109E-10
(PID.TID 0000.0001) %MON dynstat_wvel_sd              =   1.0887061343574E-05
(PID.TID 0000.0001) %MON dynstat_wvel_del2            =   4.4995129110407E-08
(PID.TID 0000.0001) %MON dynstat_theta_max            =   1.2000000000000E+00
(PID.TID 0000.0001) %MON dynstat_theta_min            =  -1.0000000000000E+00
(PID.TID 0000.0001) %MON dynstat_theta_mean           =   5.6531435217368E-01
(PID.TID 0000.0001) %MON dynstat_theta_sd             =   8.4901659633756E-01
(PID.TID 0000.0001) %MON dynstat_theta_del2           =   1.4051044109303E-06
(PID.TID 0000.0001) %MON dynstat_salt_max             =   3.4700000000000E+01
(PID.TID 0000.0001) %MON dynstat_salt_min             =   3.4000000000000E+01
(PID.TID 0000.0001) %MON dynstat_salt_mean            =   3.4498039524013E+01
(PID.TID 0000.0001) %MON dynstat_salt_sd              =   2.7014141302205E-01
(PID.TID 0000.0001) %MON dynstat_salt_del2            =   5.5184600214972E-07
(PID.TID 0000.0001) %MON advcfl_uvel_max              =   1.2224600953421E-03
(PID.TID 0000.0001) %MON advcfl_vvel_max              =   9.9465133715526E-04
(PID.TID 0000.0001) %MON advcfl_wvel_max              =   2.3940832761493E-03
(PID.TID 0000.0001) %MON advcfl_W_hf_max              =   2.3940832761493E-03
(PID.TID 0000.0001) %MON pe_b_mean                    =  -6.8252567766395E-01
(PID.TID 0000.0001) %MON ke_max                       =   4.5852227395807E-05
(PID.TID 0000.0001) %MON ke_mean                      =   6.7991729576275E-08
(PID.TID 0000.0001) %MON ke_vol                       =   4.6182956066576E+12
(PID.TID 0000.0001) // =======================================================
(PID.TID 0000.0001) // End MONITOR dynamic field statistics
(PID.TID 0000.0001) // =======================================================
(PID.TID 0000.0001) // =======================================================
(PID.TID 0000.0001) // Begin OBCS MONITOR field statistics
(PID.TID 0000.0001) // =======================================================
(PID.TID 0000.0001) %MON obc_N_vVel_max               =  -6.3766296449315E-08
(PID.TID 0000.0001) %MON obc_N_vVel_min               =  -6.3766296449316E-08
(PID.TID 0000.0001) %MON obc_N_vVel_mean              =  -6.3766296449316E-08
(PID.TID 0000.0001) %MON obc_N_vVel_sd                =  -1.4909471108677E-28
(PID.TID 0000.0001) %MON obc_N_vVel_Int               =  -4.2085755656549E+00
(PID.TID 0000.0001) // =======================================================
(PID.TID 0000.0001) // End OBCS MONITOR field statistics
(PID.TID 0000.0001) // =======================================================
 cg2d: Sum(rhs),rhsMax =   3.01079341112233E+00  4.53047449189018E+02
(PID.TID 0000.0001)      cg2d_init_res =   1.73470398753472E-06
(PID.TID 0000.0001)      cg2d_iters(min,last) =      -1      72
(PID.TID 0000.0001)      cg2d_last_res =   9.41266871711890E-12
(PID.TID 0000.0001) // =======================================================
(PID.TID 0000.0001) // Begin MONITOR dynamic field statistics
(PID.TID 0000.0001) // =======================================================
(PID.TID 0000.0001) %MON time_tsnumber                =                   795
(PID.TID 0000.0001) %MON time_secondsf                =   7.9500000000000E+04
(PID.TID 0000.0001) %MON dynstat_eta_max              =   5.7976744380176E+00
(PID.TID 0000.0001) %MON dynstat_eta_min              =  -1.4174584476249E+01
(PID.TID 0000.0001) %MON dynstat_eta_mean             =  -2.5259856943409E+00
(PID.TID 0000.0001) %MON dynstat_eta_sd               =   4.9416366596952E+00
(PID.TID 0000.0001) %MON dynstat_eta_del2             =   1.9058244645566E-01
(PID.TID 0000.0001) %MON dynstat_uvel_max             =   3.4340310003369E-03
(PID.TID 0000.0001) %MON dynstat_uvel_min             =  -1.2258116500748E-02
(PID.TID 0000.0001) %MON dynstat_uvel_mean            =  -1.1378925481077E-09
(PID.TID 0000.0001) %MON dynstat_uvel_sd              =   3.2230132761928E-04
(PID.TID 0000.0001) %MON dynstat_uvel_del2            =   5.4143743066359E-07
(PID.TID 0000.0001) %MON dynstat_vvel_max             =   9.9664284756680E-03
(PID.TID 0000.0001) %MON dynstat_vvel_min             =  -3.4524892820027E-03
(PID.TID 0000.0001) %MON dynstat_vvel_mean            =  -4.8148199334886E-08
(PID.TID 0000.0001) %MON dynstat_vvel_sd              =   1.8643549084657E-04
(PID.TID 0000.0001) %MON dynstat_vvel_del2            =   5.0368573558637E-07
(PID.TID 0000.0001) %MON dynstat_wvel_max             =   4.8028066409489E-04
(PID.TID 0000.0001) %MON dynstat_wvel_min             =  -4.7525337735005E-04
(PID.TID 0000.0001) %MON dynstat_wvel_mean            =   1.8904962464559E-10
(PID.TID 0000.0001) %MON dynstat_wvel_sd              =   1.0840481449919E-05
(PID.TID 0000.0001) %MON dynstat_wvel_del2            =   4.4554991235428E-08
(PID.TID 0000.0001) %MON dynstat_theta_max            =   1.2000000000000E+00
(PID.TID 0000.0001) %MON dynstat_theta_min            =  -1.0000000000000E+00
(PID.TID 0000.0001) %MON dynstat_theta_mean           =   5.6531399927851E-01
(PID.TID 0000.0001) %MON dynstat_theta_sd             =   8.4901646253284E-01
(PID.TID 0000.0001) %MON dynstat_theta_del2           =   1.4081481239411E-06
(PID.TID 0000.0001) %MON dynstat_salt_max             =   3.4700000000000E+01
(PID.TID 0000.0001) %MON dynstat_salt_min             =   3.4000000000000E+01
(PID.TID 0000.0001) %MON dynstat_salt_mean            =   3.4498039383565E+01
(PID.TID 0000.0001) %MON dynstat_salt_sd              =   2.7014136452933E-01
(PID.TID 0000.0001) %MON dynstat_salt_del2            =   5.5304570813026E-07
(PID.TID 0000.0001) %MON advcfl_uvel_max              =   1.2258116500748E-03
(PID.TID 0000.0001) %MON advcfl_vvel_max              =   9.9664284756680E-04
(PID.TID 0000.0001) %MON advcfl_wvel_max              =   2.4014033204745E-03
(PID.TID 0000.0001) %MON advcfl_W_hf_max              =   2.4014033204745E-03
(PID.TID 0000.0001) %MON pe_b_mean                    =  -6.8252475700748E-01
(PID.TID 0000.0001) %MON ke_max                       =   4.6103193853294E-05
(PID.TID 0000.0001) %MON ke_mean                      =   6.8341256689618E-08
(PID.TID 0000.0001) %MON ke_vol                       =   4.6182956257998E+12
(PID.TID 0000.0001) // =======================================================
(PID.TID 0000.0001) // End MONITOR dynamic field statistics
(PID.TID 0000.0001) // =======================================================
(PID.TID 0000.0001) // =======================================================
(PID.TID 0000.0001) // Begin OBCS MONITOR field statistics
(PID.TID 0000.0001) // =======================================================
(PID.TID 0000.0001) %MON obc_N_vVel_max               =  -6.3954471515295E-08
(PID.TID 0000.0001) %MON obc_N_vVel_min               =  -6.3954471515296E-08
(PID.TID 0000.0001) %MON obc_N_vVel_mean              =  -6.3954471515295E-08
(PID.TID 0000.0001) %MON obc_N_vVel_sd                =   8.8372636951084E-15
(PID.TID 0000.0001) %MON obc_N_vVel_Int               =  -4.2209951200095E+00
(PID.TID 0000.0001) // =======================================================
(PID.TID 0000.0001) // End OBCS MONITOR field statistics
(PID.TID 0000.0001) // =======================================================
 cg2d: Sum(rhs),rhsMax =   3.01078960976560E+00  4.53047441167139E+02
(PID.TID 0000.0001)      cg2d_init_res =   1.73274179232380E-06
(PID.TID 0000.0001)      cg2d_iters(min,last) =      -1      72
(PID.TID 0000.0001)      cg2d_last_res =   9.43128682187805E-12
(PID.TID 0000.0001) // =======================================================
(PID.TID 0000.0001) // Begin MONITOR dynamic field statistics
(PID.TID 0000.0001) // =======================================================
(PID.TID 0000.0001) %MON time_tsnumber                =                   796
(PID.TID 0000.0001) %MON time_secondsf                =   7.9600000000000E+04
(PID.TID 0000.0001) %MON dynstat_eta_max              =   5.7976772371592E+00
(PID.TID 0000.0001) %MON dynstat_eta_min              =  -1.4174579207513E+01
(PID.TID 0000.0001) %MON dynstat_eta_mean             =  -2.5259824603647E+00
(PID.TID 0000.0001) %MON dynstat_eta_sd               =   4.9416356748228E+00
(PID.TID 0000.0001) %MON dynstat_eta_del2             =   1.9058245340866E-01
(PID.TID 0000.0001) %MON dynstat_uvel_max             =   3.4392090342550E-03
(PID.TID 0000.0001) %MON dynstat_uvel_min             =  -1.2291701913869E-02
(PID.TID 0000.0001) %MON dynstat_uvel_mean            =  -1.1366225674413E-09
(PID.TID 0000.0001) %MON dynstat_uvel_sd              =   3.2316111875786E-04
(PID.TID 0000.0001) %MON dynstat_uvel_del2            =   5.4265381816251E-07
(PID.TID 0000.0001) %MON dynstat_vvel_max             =   9.9863690733597E-03
(PID.TID 0000.0001) %MON dynstat_vvel_min             =  -3.4614528361780E-03
(PID.TID 0000.0001) %MON dynstat_vvel_mean            =  -4.8375723914626E-08
(PID.TID 0000.0001) %MON dynstat_vvel_sd              =   1.8686058890973E-04
(PID.TID 0000.0001) %MON dynstat_vvel_del2            =   5.0457698581546E-07
(PID.TID 0000.0001) %MON dynstat_wvel_max             =   4.8174786624425E-04
(PID.TID 0000.0001) %MON dynstat_wvel_min             =  -4.7687598437729E-04
(PID.TID 0000.0001) %MON dynstat_wvel_mean            =   1.8910947064979E-10
(PID.TID 0000.0001) %MON dynstat_wvel_sd              =   1.0792650681601E-05
(PID.TID 0000.0001) %MON dynstat_wvel_del2            =   4.4095731055573E-08
(PID.TID 0000.0001) %MON dynstat_theta_max            =   1.2000000000000E+00
(PID.TID 0000.0001) %MON dynstat_theta_min            =  -1.0000000000000E+00
(PID.TID 0000.0001) %MON dynstat_theta_mean           =   5.6531364572494E-01
(PID.TID 0000.0001) %MON dynstat_theta_sd             =   8.4901632843498E-01
(PID.TID 0000.0001) %MON dynstat_theta_del2           =   1.4111952038266E-06
(PID.TID 0000.0001) %MON dynstat_salt_max             =   3.4700000000000E+01
(PID.TID 0000.0001) %MON dynstat_salt_min             =   3.4000000000000E+01
(PID.TID 0000.0001) %MON dynstat_salt_mean            =   3.4498039242857E+01
(PID.TID 0000.0001) %MON dynstat_salt_sd              =   2.7014131591767E-01
(PID.TID 0000.0001) %MON dynstat_salt_del2            =   5.5424730247410E-07
(PID.TID 0000.0001) %MON advcfl_uvel_max              =   1.2291701913869E-03
(PID.TID 0000.0001) %MON advcfl_vvel_max              =   9.9863690733597E-04
(PID.TID 0000.0001) %MON advcfl_wvel_max              =   2.4087393312213E-03
(PID.TID 0000.0001) %MON advcfl_W_hf_max              =   2.4087393312213E-03
(PID.TID 0000.0001) %MON pe_b_mean                    =  -6.8252383460072E-01
(PID.TID 0000.0001) %MON ke_max                       =   4.6355369191681E-05
(PID.TID 0000.0001) %MON ke_mean                      =   6.8692863216248E-08
(PID.TID 0000.0001) %MON ke_vol                       =   4.6182956449756E+12
(PID.TID 0000.0001) // =======================================================
(PID.TID 0000.0001) // End MONITOR dynamic field statistics
(PID.TID 0000.0001) // =======================================================
(PID.TID 0000.0001) // =======================================================
(PID.TID 0000.0001) // Begin OBCS MONITOR field statistics
(PID.TID 0000.0001) // =======================================================
(PID.TID 0000.0001) %MON obc_N_vVel_max               =  -6.4186127850310E-08
(PID.TID 0000.0001) %MON obc_N_vVel_min               =  -6.4186127850311E-08
(PID.TID 0000.0001) %MON obc_N_vVel_mean              =  -6.4186127850310E-08
(PID.TID 0000.0001) %MON obc_N_vVel_sd                =   7.9936057773011E-15
(PID.TID 0000.0001) %MON obc_N_vVel_Int               =  -4.2362844381204E+00
(PID.TID 0000.0001) // =======================================================
(PID.TID 0000.0001) // End OBCS MONITOR field statistics
(PID.TID 0000.0001) // =======================================================
 cg2d: Sum(rhs),rhsMax =   3.01078580141839E+00  4.53047433158228E+02
(PID.TID 0000.0001)      cg2d_init_res =   1.73086066491212E-06
(PID.TID 0000.0001)      cg2d_iters(min,last) =      -1      72
(PID.TID 0000.0001)      cg2d_last_res =   9.44930484177317E-12
(PID.TID 0000.0001) // =======================================================
(PID.TID 0000.0001) // Begin MONITOR dynamic field statistics
(PID.TID 0000.0001) // =======================================================
(PID.TID 0000.0001) %MON time_tsnumber                =                   797
(PID.TID 0000.0001) %MON time_secondsf                =   7.9700000000000E+04
(PID.TID 0000.0001) %MON dynstat_eta_max              =   5.7976800346661E+00
(PID.TID 0000.0001) %MON dynstat_eta_min              =  -1.4174573922142E+01
(PID.TID 0000.0001) %MON dynstat_eta_mean             =  -2.5259792205960E+00
(PID.TID 0000.0001) %MON dynstat_eta_sd               =   4.9416346883459E+00
(PID.TID 0000.0001) %MON dynstat_eta_del2             =   1.9058246038443E-01
(PID.TID 0000.0001) %MON dynstat_uvel_max             =   3.4443875512231E-03
(PID.TID 0000.0001) %MON dynstat_uvel_min             =  -1.2325357224168E-02
(PID.TID 0000.0001) %MON dynstat_uvel_mean            =  -1.1352759708478E-09
(PID.TID 0000.0001) %MON dynstat_uvel_sd              =   3.2402397899941E-04
(PID.TID 0000.0001) %MON dynstat_uvel_del2            =   5.4387367047143E-07
(PID.TID 0000.0001) %MON dynstat_vvel_max             =   1.0006335122575E-02
(PID.TID 0000.0001) %MON dynstat_vvel_min             =  -3.4704316798022E-03
(PID.TID 0000.0001) %MON dynstat_vvel_mean            =  -4.8652822461764E-08
(PID.TID 0000.0001) %MON dynstat_vvel_sd              =   1.8728772066617E-04
(PID.TID 0000.0001) %MON dynstat_vvel_del2            =   5.0548126965504E-07
(PID.TID 0000.0001) %MON dynstat_wvel_max             =   4.8321826678575E-04
(PID.TID 0000.0001) %MON dynstat_wvel_min             =  -4.7850380540273E-04
(PID.TID 0000.0001) %MON dynstat_wvel_mean            =   1.8916275384699E-10
(PID.TID 0000.0001) %MON dynstat_wvel_sd              =   1.0748805925504E-05
(PID.TID 0000.0001) %MON dynstat_wvel_del2            =   4.3662848642024E-08
(PID.TID 0000.0001) %MON dynstat_theta_max            =   1.2000000000000E+00
(PID.TID 0000.0001) %MON dynstat_theta_min            =  -1.0000000000000E+00
(PID.TID 0000.0001) %MON dynstat_theta_mean           =   5.6531329151562E-01
(PID.TID 0000.0001) %MON dynstat_theta_sd             =   8.4901619404453E-01
(PID.TID 0000.0001) %MON dynstat_theta_del2           =   1.4142321678893E-06
(PID.TID 0000.0001) %MON dynstat_salt_max             =   3.4700000000000E+01
(PID.TID 0000.0001) %MON dynstat_salt_min             =   3.4000000000000E+01
(PID.TID 0000.0001) %MON dynstat_salt_mean            =   3.4498039101890E+01
(PID.TID 0000.0001) %MON dynstat_salt_sd              =   2.7014126718725E-01
(PID.TID 0000.0001) %MON dynstat_salt_del2            =   5.5544734395149E-07
(PID.TID 0000.0001) %MON advcfl_uvel_max              =   1.2325357224168E-03
(PID.TID 0000.0001) %MON advcfl_vvel_max              =   1.0006335122575E-03
(PID.TID 0000.0001) %MON advcfl_wvel_max              =   2.4160913339288E-03
(PID.TID 0000.0001) %MON advcfl_W_hf_max              =   2.4160913339288E-03
(PID.TID 0000.0001) %MON pe_b_mean                    =  -6.8252291042757E-01
(PID.TID 0000.0001) %MON ke_max                       =   4.6608757802309E-05
(PID.TID 0000.0001) %MON ke_mean                      =   6.9046732428216E-08
(PID.TID 0000.0001) %MON ke_vol                       =   4.6182956641854E+12
(PID.TID 0000.0001) // =======================================================
(PID.TID 0000.0001) // End MONITOR dynamic field statistics
(PID.TID 0000.0001) // =======================================================
(PID.TID 0000.0001) // =======================================================
(PID.TID 0000.0001) // Begin OBCS MONITOR field statistics
(PID.TID 0000.0001) // =======================================================
(PID.TID 0000.0001) %MON obc_N_vVel_max               =  -6.4463540793166E-08
(PID.TID 0000.0001) %MON obc_N_vVel_min               =  -6.4463540793167E-08
(PID.TID 0000.0001) %MON obc_N_vVel_mean              =  -6.4463540793167E-08
(PID.TID 0000.0001) %MON obc_N_vVel_sd                =  -2.2561421889321E-28
(PID.TID 0000.0001) %MON obc_N_vVel_Int               =  -4.2545936923490E+00
(PID.TID 0000.0001) // =======================================================
(PID.TID 0000.0001) // End OBCS MONITOR field statistics
(PID.TID 0000.0001) // =======================================================
 cg2d: Sum(rhs),rhsMax =   3.01078198599279E+00  4.53047425162609E+02
(PID.TID 0000.0001)      cg2d_init_res =   1.72953594028299E-06
(PID.TID 0000.0001)      cg2d_iters(min,last) =      -1      72
(PID.TID 0000.0001)      cg2d_last_res =   9.46662640722751E-12
(PID.TID 0000.0001) // =======================================================
(PID.TID 0000.0001) // Begin MONITOR dynamic field statistics
(PID.TID 0000.0001) // =======================================================
(PID.TID 0000.0001) %MON time_tsnumber                =                   798
(PID.TID 0000.0001) %MON time_secondsf                =   7.9800000000000E+04
(PID.TID 0000.0001) %MON dynstat_eta_max              =   5.7976828305650E+00
(PID.TID 0000.0001) %MON dynstat_eta_min              =  -1.4174568619891E+01
(PID.TID 0000.0001) %MON dynstat_eta_mean             =  -2.5259759749630E+00
(PID.TID 0000.0001) %MON dynstat_eta_sd               =   4.9416337002419E+00
(PID.TID 0000.0001) %MON dynstat_eta_del2             =   1.9058246738298E-01
(PID.TID 0000.0001) %MON dynstat_uvel_max             =   3.4495664976415E-03
(PID.TID 0000.0001) %MON dynstat_uvel_min             =  -1.2359082462426E-02
(PID.TID 0000.0001) %MON dynstat_uvel_mean            =  -1.1339042980136E-09
(PID.TID 0000.0001) %MON dynstat_uvel_sd              =   3.2488991109616E-04
(PID.TID 0000.0001) %MON dynstat_uvel_del2            =   5.4509699630186E-07
(PID.TID 0000.0001) %MON dynstat_vvel_max             =   1.0026326580892E-02
(PID.TID 0000.0001) %MON dynstat_vvel_min             =  -3.4794258565718E-03
(PID.TID 0000.0001) %MON dynstat_vvel_mean            =  -4.8980184062561E-08
(PID.TID 0000.0001) %MON dynstat_vvel_sd              =   1.8771771972402E-04
(PID.TID 0000.0001) %MON dynstat_vvel_del2            =   5.0640879803083E-07
(PID.TID 0000.0001) %MON dynstat_wvel_max             =   4.8469187082422E-04
(PID.TID 0000.0001) %MON dynstat_wvel_min             =  -4.8013684848137E-04
(PID.TID 0000.0001) %MON dynstat_wvel_mean            =   1.8921730861786E-10
(PID.TID 0000.0001) %MON dynstat_wvel_sd              =   1.0713782240761E-05
(PID.TID 0000.0001) %MON dynstat_wvel_del2            =   4.3300053899077E-08
(PID.TID 0000.0001) %MON dynstat_theta_max            =   1.2000000000000E+00
(PID.TID 0000.0001) %MON dynstat_theta_min            =  -1.0000000000000E+00
(PID.TID 0000.0001) %MON dynstat_theta_mean           =   5.6531293665408E-01
(PID.TID 0000.0001) %MON dynstat_theta_sd             =   8.4901605936241E-01
(PID.TID 0000.0001) %MON dynstat_theta_del2           =   1.4172472684169E-06
(PID.TID 0000.0001) %MON dynstat_salt_max             =   3.4700000000000E+01
(PID.TID 0000.0001) %MON dynstat_salt_min             =   3.4000000000000E+01
(PID.TID 0000.0001) %MON dynstat_salt_mean            =   3.4498038960666E+01
(PID.TID 0000.0001) %MON dynstat_salt_sd              =   2.7014121833822E-01
(PID.TID 0000.0001) %MON dynstat_salt_del2            =   5.5664280011547E-07
(PID.TID 0000.0001) %MON advcfl_uvel_max              =   1.2359082462426E-03
(PID.TID 0000.0001) %MON advcfl_vvel_max              =   1.0026326580892E-03
(PID.TID 0000.0001) %MON advcfl_wvel_max              =   2.4234593541211E-03
(PID.TID 0000.0001) %MON advcfl_W_hf_max              =   2.4234593541211E-03
(PID.TID 0000.0001) %MON pe_b_mean                    =  -6.8252198447149E-01
(PID.TID 0000.0001) %MON ke_max                       =   4.6863364082326E-05
(PID.TID 0000.0001) %MON ke_mean                      =   6.9403032081627E-08
(PID.TID 0000.0001) %MON ke_vol                       =   4.6182956834297E+12
(PID.TID 0000.0001) // =======================================================
(PID.TID 0000.0001) // End MONITOR dynamic field statistics
(PID.TID 0000.0001) // =======================================================
(PID.TID 0000.0001) // =======================================================
(PID.TID 0000.0001) // Begin OBCS MONITOR field statistics
(PID.TID 0000.0001) // =======================================================
(PID.TID 0000.0001) %MON obc_N_vVel_max               =  -6.4787986579362E-08
(PID.TID 0000.0001) %MON obc_N_vVel_min               =  -6.4787986579362E-08
(PID.TID 0000.0001) %MON obc_N_vVel_mean              =  -6.4787986579362E-08
(PID.TID 0000.0001) %MON obc_N_vVel_sd                =   1.2716779685530E-14
(PID.TID 0000.0001) %MON obc_N_vVel_Int               =  -4.2760071142379E+00
(PID.TID 0000.0001) // =======================================================
(PID.TID 0000.0001) // End OBCS MONITOR field statistics
(PID.TID 0000.0001) // =======================================================
 cg2d: Sum(rhs),rhsMax =   3.01077816339703E+00  4.53047417180706E+02
(PID.TID 0000.0001)      cg2d_init_res =   1.72918287734551E-06
(PID.TID 0000.0001)      cg2d_iters(min,last) =      -1      72
(PID.TID 0000.0001)      cg2d_last_res =   9.48308965618517E-12
(PID.TID 0000.0001) // =======================================================
(PID.TID 0000.0001) // Begin MONITOR dynamic field statistics
(PID.TID 0000.0001) // =======================================================
(PID.TID 0000.0001) %MON time_tsnumber                =                   799
(PID.TID 0000.0001) %MON time_secondsf                =   7.9900000000000E+04
(PID.TID 0000.0001) %MON dynstat_eta_max              =   5.7976856248926E+00
(PID.TID 0000.0001) %MON dynstat_eta_min              =  -1.4174563300514E+01
(PID.TID 0000.0001) %MON dynstat_eta_mean             =  -2.5259727233909E+00
(PID.TID 0000.0001) %MON dynstat_eta_sd               =   4.9416327104870E+00
(PID.TID 0000.0001) %MON dynstat_eta_del2             =   1.9058247440430E-01
(PID.TID 0000.0001) %MON dynstat_uvel_max             =   3.4547458199352E-03
(PID.TID 0000.0001) %MON dynstat_uvel_min             =  -1.2392877658805E-02
(PID.TID 0000.0001) %MON dynstat_uvel_mean            =  -1.1325630121743E-09
(PID.TID 0000.0001) %MON dynstat_uvel_sd              =   3.2575891766187E-04
(PID.TID 0000.0001) %MON dynstat_uvel_del2            =   5.4632380555046E-07
(PID.TID 0000.0001) %MON dynstat_vvel_max             =   1.0046343405509E-02
(PID.TID 0000.0001) %MON dynstat_vvel_min             =  -3.4884354102207E-03
(PID.TID 0000.0001) %MON dynstat_vvel_mean            =  -4.9357358841676E-08
(PID.TID 0000.0001) %MON dynstat_vvel_sd              =   1.8815125361242E-04
(PID.TID 0000.0001) %MON dynstat_vvel_del2            =   5.0736768782240E-07
(PID.TID 0000.0001) %MON dynstat_wvel_max             =   4.8616868343284E-04
(PID.TID 0000.0001) %MON dynstat_wvel_min             =  -4.8177512176066E-04
(PID.TID 0000.0001) %MON dynstat_wvel_mean            =   1.8928072084752E-10
(PID.TID 0000.0001) %MON dynstat_wvel_sd              =   1.0691546594054E-05
(PID.TID 0000.0001) %MON dynstat_wvel_del2            =   4.3044788305051E-08
(PID.TID 0000.0001) %MON dynstat_theta_max            =   1.2000000000000E+00
(PID.TID 0000.0001) %MON dynstat_theta_min            =  -1.0000000000000E+00
(PID.TID 0000.0001) %MON dynstat_theta_mean           =   5.6531258114456E-01
(PID.TID 0000.0001) %MON dynstat_theta_sd             =   8.4901592438328E-01
(PID.TID 0000.0001) %MON dynstat_theta_del2           =   1.4202315123774E-06
(PID.TID 0000.0001) %MON dynstat_salt_max             =   3.4700000000000E+01
(PID.TID 0000.0001) %MON dynstat_salt_min             =   3.4000000000000E+01
(PID.TID 0000.0001) %MON dynstat_salt_mean            =   3.4498038819185E+01
(PID.TID 0000.0001) %MON dynstat_salt_sd              =   2.7014116936886E-01
(PID.TID 0000.0001) %MON dynstat_salt_del2            =   5.5783132880985E-07
(PID.TID 0000.0001) %MON advcfl_uvel_max              =   1.2392877658805E-03
(PID.TID 0000.0001) %MON advcfl_vvel_max              =   1.0046343405509E-03
(PID.TID 0000.0001) %MON advcfl_wvel_max              =   2.4308434171642E-03
(PID.TID 0000.0001) %MON advcfl_W_hf_max              =   2.4308434171642E-03
(PID.TID 0000.0001) %MON pe_b_mean                    =  -6.8252105671547E-01
(PID.TID 0000.0001) %MON ke_max                       =   4.7119192434990E-05
(PID.TID 0000.0001) %MON ke_mean                      =   6.9761900132739E-08
(PID.TID 0000.0001) %MON ke_vol                       =   4.6182957027087E+12
(PID.TID 0000.0001) // =======================================================
(PID.TID 0000.0001) // End MONITOR dynamic field statistics
(PID.TID 0000.0001) // =======================================================
(PID.TID 0000.0001) // =======================================================
(PID.TID 0000.0001) // Begin OBCS MONITOR field statistics
(PID.TID 0000.0001) // =======================================================
(PID.TID 0000.0001) %MON obc_N_vVel_max               =  -6.5159667106892E-08
(PID.TID 0000.0001) %MON obc_N_vVel_min               =  -6.5159667106893E-08
(PID.TID 0000.0001) %MON obc_N_vVel_mean              =  -6.5159667106893E-08
(PID.TID 0000.0001) %MON obc_N_vVel_sd                =  -1.6487192919119E-28
(PID.TID 0000.0001) %MON obc_N_vVel_Int               =  -4.3005380290550E+00
(PID.TID 0000.0001) // =======================================================
(PID.TID 0000.0001) // End OBCS MONITOR field statistics
(PID.TID 0000.0001) // =======================================================
 cg2d: Sum(rhs),rhsMax =   3.01077433353980E+00  4.53047409213035E+02
(PID.TID 0000.0001)      cg2d_init_res =   1.73012956643509E-06
(PID.TID 0000.0001)      cg2d_iters(min,last) =      -1      72
(PID.TID 0000.0001)      cg2d_last_res =   9.49860911913442E-12
(PID.TID 0000.0001) // =======================================================
(PID.TID 0000.0001) // Begin MONITOR dynamic field statistics
(PID.TID 0000.0001) // =======================================================
(PID.TID 0000.0001) %MON time_tsnumber                =                   800
(PID.TID 0000.0001) %MON time_secondsf                =   8.0000000000000E+04
(PID.TID 0000.0001) %MON dynstat_eta_max              =   5.7976884176980E+00
(PID.TID 0000.0001) %MON dynstat_eta_min              =  -1.4174557963787E+01
(PID.TID 0000.0001) %MON dynstat_eta_mean             =  -2.5259694658061E+00
(PID.TID 0000.0001) %MON dynstat_eta_sd               =   4.9416317190566E+00
(PID.TID 0000.0001) %MON dynstat_eta_del2             =   1.9058248144827E-01
(PID.TID 0000.0001) %MON dynstat_uvel_max             =   3.4599254644903E-03
(PID.TID 0000.0001) %MON dynstat_uvel_min             =  -1.2426742842688E-02
(PID.TID 0000.0001) %MON dynstat_uvel_mean            =  -1.1313127143688E-09
(PID.TID 0000.0001) %MON dynstat_uvel_sd              =   3.2663100119016E-04
(PID.TID 0000.0001) %MON dynstat_uvel_del2            =   5.4755410977751E-07
(PID.TID 0000.0001) %MON dynstat_vvel_max             =   1.0066385553154E-02
(PID.TID 0000.0001) %MON dynstat_vvel_min             =  -3.4974603844731E-03
(PID.TID 0000.0001) %MON dynstat_vvel_mean            =  -4.9782784360595E-08
(PID.TID 0000.0001) %MON dynstat_vvel_sd              =   1.8858876553989E-04
(PID.TID 0000.0001) %MON dynstat_vvel_del2            =   5.0836325536598E-07
(PID.TID 0000.0001) %MON dynstat_wvel_max             =   4.8764870967945E-04
(PID.TID 0000.0001) %MON dynstat_wvel_min             =  -4.8341863342321E-04
(PID.TID 0000.0001) %MON dynstat_wvel_mean            =   1.8936101668850E-10
(PID.TID 0000.0001) %MON dynstat_wvel_sd              =   1.0684805979836E-05
(PID.TID 0000.0001) %MON dynstat_wvel_del2            =   4.2924036295836E-08
(PID.TID 0000.0001) %MON dynstat_theta_max            =   1.2000000000000E+00
(PID.TID 0000.0001) %MON dynstat_theta_min            =  -1.0000000000000E+00
(PID.TID 0000.0001) %MON dynstat_theta_mean           =   5.6531222499204E-01
(PID.TID 0000.0001) %MON dynstat_theta_sd             =   8.4901578909395E-01
(PID.TID 0000.0001) %MON dynstat_theta_del2           =   1.4231793756473E-06
(PID.TID 0000.0001) %MON dynstat_salt_max             =   3.4700000000000E+01
(PID.TID 0000.0001) %MON dynstat_salt_min             =   3.4000000000000E+01
(PID.TID 0000.0001) %MON dynstat_salt_mean            =   3.4498038677449E+01
(PID.TID 0000.0001) %MON dynstat_salt_sd              =   2.7014112027501E-01
(PID.TID 0000.0001) %MON dynstat_salt_del2            =   5.5901151192814E-07
(PID.TID 0000.0001) %MON advcfl_uvel_max              =   1.2426742842688E-03
(PID.TID 0000.0001) %MON advcfl_vvel_max              =   1.0066385553154E-03
(PID.TID 0000.0001) %MON advcfl_wvel_max              =   2.4382435483972E-03
(PID.TID 0000.0001) %MON advcfl_W_hf_max              =   2.4382435483972E-03
(PID.TID 0000.0001) %MON pe_b_mean                    =  -6.8252012714278E-01
(PID.TID 0000.0001) %MON ke_max                       =   4.7376247268089E-05
(PID.TID 0000.0001) %MON ke_mean                      =   7.0123433423723E-08
(PID.TID 0000.0001) %MON ke_vol                       =   4.6182957220231E+12
(PID.TID 0000.0001) // =======================================================
(PID.TID 0000.0001) // End MONITOR dynamic field statistics
(PID.TID 0000.0001) // =======================================================
(PID.TID 0000.0001) // =======================================================
(PID.TID 0000.0001) // Begin OBCS MONITOR field statistics
(PID.TID 0000.0001) // =======================================================
(PID.TID 0000.0001) %MON obc_N_vVel_max               =  -6.5577771896377E-08
(PID.TID 0000.0001) %MON obc_N_vVel_min               =  -6.5577771896380E-08
(PID.TID 0000.0001) %MON obc_N_vVel_mean              =  -6.5577771896377E-08
(PID.TID 0000.0001) %MON obc_N_vVel_sd                =   2.0999362990780E-14
(PID.TID 0000.0001) %MON obc_N_vVel_Int               =  -4.3281329451609E+00
(PID.TID 0000.0001) // =======================================================
(PID.TID 0000.0001) // End OBCS MONITOR field statistics
(PID.TID 0000.0001) // =======================================================
 cg2d: Sum(rhs),rhsMax =   3.01077049633342E+00  4.53047401260122E+02
(PID.TID 0000.0001)      cg2d_init_res =   1.73259048861682E-06
(PID.TID 0000.0001)      cg2d_iters(min,last) =      -1      72
(PID.TID 0000.0001)      cg2d_last_res =   9.51336941353865E-12
(PID.TID 0000.0001) // =======================================================
(PID.TID 0000.0001) // Begin MONITOR dynamic field statistics
(PID.TID 0000.0001) // =======================================================
(PID.TID 0000.0001) %MON time_tsnumber                =                   801
(PID.TID 0000.0001) %MON time_secondsf                =   8.0100000000000E+04
(PID.TID 0000.0001) %MON dynstat_eta_max              =   5.7976912090175E+00
(PID.TID 0000.0001) %MON dynstat_eta_min              =  -1.4174552609469E+01
(PID.TID 0000.0001) %MON dynstat_eta_mean             =  -2.5259662021380E+00
(PID.TID 0000.0001) %MON dynstat_eta_sd               =   4.9416307259283E+00
(PID.TID 0000.0001) %MON dynstat_eta_del2             =   1.9058248851490E-01
(PID.TID 0000.0001) %MON dynstat_uvel_max             =   3.4651053777477E-03
(PID.TID 0000.0001) %MON dynstat_uvel_min             =  -1.2460678042742E-02
(PID.TID 0000.0001) %MON dynstat_uvel_mean            =  -1.1302122672583E-09
(PID.TID 0000.0001) %MON dynstat_uvel_sd              =   3.2750616405973E-04
(PID.TID 0000.0001) %MON dynstat_uvel_del2            =   5.4878792233222E-07
(PID.TID 0000.0001) %MON dynstat_vvel_max             =   1.0086452980323E-02
(PID.TID 0000.0001) %MON dynstat_vvel_min             =  -3.5065008229340E-03
(PID.TID 0000.0001) %MON dynstat_vvel_mean            =  -5.0253855264046E-08
(PID.TID 0000.0001) %MON dynstat_vvel_sd              =   1.8903043795944E-04
(PID.TID 0000.0001) %MON dynstat_vvel_del2            =   5.0939758005303E-07
(PID.TID 0000.0001) %MON dynstat_wvel_max             =   4.8913195461697E-04
(PID.TID 0000.0001) %MON dynstat_wvel_min             =  -4.8506739172903E-04
(PID.TID 0000.0001) %MON dynstat_wvel_mean            =   1.8946482392753E-10
(PID.TID 0000.0001) %MON dynstat_wvel_sd              =   1.0694741966001E-05
(PID.TID 0000.0001) %MON dynstat_wvel_del2            =   4.2951137335979E-08
(PID.TID 0000.0001) %MON dynstat_theta_max            =   1.2000000000000E+00
(PID.TID 0000.0001) %MON dynstat_theta_min            =  -1.0000000000000E+00
(PID.TID 0000.0001) %MON dynstat_theta_mean           =   5.6531186820219E-01
(PID.TID 0000.0001) %MON dynstat_theta_sd             =   8.4901565348009E-01
(PID.TID 0000.0001) %MON dynstat_theta_del2           =   1.4260892207792E-06
(PID.TID 0000.0001) %MON dynstat_salt_max             =   3.4700000000000E+01
(PID.TID 0000.0001) %MON dynstat_salt_min             =   3.4000000000000E+01
(PID.TID 0000.0001) %MON dynstat_salt_mean            =   3.4498038535460E+01
(PID.TID 0000.0001) %MON dynstat_salt_sd              =   2.7014107105187E-01
(PID.TID 0000.0001) %MON dynstat_salt_del2            =   5.6018293489978E-07
(PID.TID 0000.0001) %MON advcfl_uvel_max              =   1.2460678042742E-03
(PID.TID 0000.0001) %MON advcfl_vvel_max              =   1.0086452980323E-03
(PID.TID 0000.0001) %MON advcfl_wvel_max              =   2.4456597730848E-03
(PID.TID 0000.0001) %MON advcfl_W_hf_max              =   2.4456597730848E-03
(PID.TID 0000.0001) %MON pe_b_mean                    =  -6.8251919573755E-01
(PID.TID 0000.0001) %MON ke_max                       =   4.7634532995144E-05
(PID.TID 0000.0001) %MON ke_mean                      =   7.0487680326842E-08
(PID.TID 0000.0001) %MON ke_vol                       =   4.6182957413731E+12
(PID.TID 0000.0001) // =======================================================
(PID.TID 0000.0001) // End MONITOR dynamic field statistics
(PID.TID 0000.0001) // =======================================================
(PID.TID 0000.0001) // =======================================================
(PID.TID 0000.0001) // Begin OBCS MONITOR field statistics
(PID.TID 0000.0001) // =======================================================
(PID.TID 0000.0001) %MON obc_N_vVel_max               =  -6.6040408253184E-08
(PID.TID 0000.0001) %MON obc_N_vVel_min               =  -6.6040408253184E-08
(PID.TID 0000.0001) %MON obc_N_vVel_mean              =  -6.6040408253184E-08
(PID.TID 0000.0001) %MON obc_N_vVel_sd                =  -1.1911799668837E-28
(PID.TID 0000.0001) %MON obc_N_vVel_Int               =  -4.3586669447102E+00
(PID.TID 0000.0001) // =======================================================
(PID.TID 0000.0001) // End OBCS MONITOR field statistics
(PID.TID 0000.0001) // =======================================================
 cg2d: Sum(rhs),rhsMax =   3.01076665169502E+00  4.53047393322560E+02
(PID.TID 0000.0001)      cg2d_init_res =   1.73662344604223E-06
(PID.TID 0000.0001)      cg2d_iters(min,last) =      -1      72
(PID.TID 0000.0001)      cg2d_last_res =   9.52754333422362E-12
(PID.TID 0000.0001) // =======================================================
(PID.TID 0000.0001) // Begin MONITOR dynamic field statistics
(PID.TID 0000.0001) // =======================================================
(PID.TID 0000.0001) %MON time_tsnumber                =                   802
(PID.TID 0000.0001) %MON time_secondsf                =   8.0200000000000E+04
(PID.TID 0000.0001) %MON dynstat_eta_max              =   5.7976939989082E+00
(PID.TID 0000.0001) %MON dynstat_eta_min              =  -1.4174547237354E+01
(PID.TID 0000.0001) %MON dynstat_eta_mean             =  -2.5259629323202E+00
(PID.TID 0000.0001) %MON dynstat_eta_sd               =   4.9416297310820E+00
(PID.TID 0000.0001) %MON dynstat_eta_del2             =   1.9058249560409E-01
(PID.TID 0000.0001) %MON dynstat_uvel_max             =   3.4702855061735E-03
(PID.TID 0000.0001) %MON dynstat_uvel_min             =  -1.2494683286817E-02
(PID.TID 0000.0001) %MON dynstat_uvel_mean            =  -1.1293107940395E-09
(PID.TID 0000.0001) %MON dynstat_uvel_sd              =   3.2838440853345E-04
(PID.TID 0000.0001) %MON dynstat_uvel_del2            =   5.5002525839308E-07
(PID.TID 0000.0001) %MON dynstat_vvel_max             =   1.0106545642920E-02
(PID.TID 0000.0001) %MON dynstat_vvel_min             =  -3.5155567692344E-03
(PID.TID 0000.0001) %MON dynstat_vvel_mean            =  -5.0767026060010E-08
(PID.TID 0000.0001) %MON dynstat_vvel_sd              =   1.8947618085283E-04
(PID.TID 0000.0001) %MON dynstat_vvel_del2            =   5.1046937476659E-07
(PID.TID 0000.0001) %MON dynstat_wvel_max             =   4.9061842328385E-04
(PID.TID 0000.0001) %MON dynstat_wvel_min             =  -4.8672140501051E-04
(PID.TID 0000.0001) %MON dynstat_wvel_mean            =   1.8959882633315E-10
(PID.TID 0000.0001) %MON dynstat_wvel_sd              =   1.0720909895569E-05
(PID.TID 0000.0001) %MON dynstat_wvel_del2            =   4.3124244109588E-08
(PID.TID 0000.0001) %MON dynstat_theta_max            =   1.2000000000000E+00
(PID.TID 0000.0001) %MON dynstat_theta_min            =  -1.0000000000000E+00
(PID.TID 0000.0001) %MON dynstat_theta_mean           =   5.6531151078125E-01
(PID.TID 0000.0001) %MON dynstat_theta_sd             =   8.4901551752646E-01
(PID.TID 0000.0001) %MON dynstat_theta_del2           =   1.4289633271394E-06
(PID.TID 0000.0001) %MON dynstat_salt_max             =   3.4700000000000E+01
(PID.TID 0000.0001) %MON dynstat_salt_min             =   3.4000000000000E+01
(PID.TID 0000.0001) %MON dynstat_salt_mean            =   3.4498038393219E+01
(PID.TID 0000.0001) %MON dynstat_salt_sd              =   2.7014102169458E-01
(PID.TID 0000.0001) %MON dynstat_salt_del2            =   5.6134618942719E-07
(PID.TID 0000.0001) %MON advcfl_uvel_max              =   1.2494683286817E-03
(PID.TID 0000.0001) %MON advcfl_vvel_max              =   1.0106545642920E-03
(PID.TID 0000.0001) %MON advcfl_wvel_max              =   2.4530921164192E-03
(PID.TID 0000.0001) %MON advcfl_W_hf_max              =   2.4530921164192E-03
(PID.TID 0000.0001) %MON pe_b_mean                    =  -6.8251826248509E-01
(PID.TID 0000.0001) %MON ke_max                       =   4.7894054033639E-05
(PID.TID 0000.0001) %MON ke_mean                      =   7.0854637960726E-08
(PID.TID 0000.0001) %MON ke_vol                       =   4.6182957607593E+12
(PID.TID 0000.0001) // =======================================================
(PID.TID 0000.0001) // End MONITOR dynamic field statistics
(PID.TID 0000.0001) // =======================================================
(PID.TID 0000.0001) // =======================================================
(PID.TID 0000.0001) // Begin OBCS MONITOR field statistics
(PID.TID 0000.0001) // =======================================================
(PID.TID 0000.0001) %MON obc_N_vVel_max               =  -6.6544824532889E-08
(PID.TID 0000.0001) %MON obc_N_vVel_min               =  -6.6544824532889E-08
(PID.TID 0000.0001) %MON obc_N_vVel_mean              =  -6.6544824532889E-08
(PID.TID 0000.0001) %MON obc_N_vVel_sd                =  -8.9141282289974E-29
(PID.TID 0000.0001) %MON obc_N_vVel_Int               =  -4.3919584191707E+00
(PID.TID 0000.0001) // =======================================================
(PID.TID 0000.0001) // End OBCS MONITOR field statistics
(PID.TID 0000.0001) // =======================================================
 cg2d: Sum(rhs),rhsMax =   3.01076279954656E+00  4.53047385400966E+02
(PID.TID 0000.0001)      cg2d_init_res =   1.74214172948273E-06
(PID.TID 0000.0001)      cg2d_iters(min,last) =      -1      72
(PID.TID 0000.0001)      cg2d_last_res =   9.54141537486794E-12
(PID.TID 0000.0001) // =======================================================
(PID.TID 0000.0001) // Begin MONITOR dynamic field statistics
(PID.TID 0000.0001) // =======================================================
(PID.TID 0000.0001) %MON time_tsnumber                =                   803
(PID.TID 0000.0001) %MON time_secondsf                =   8.0300000000000E+04
(PID.TID 0000.0001) %MON dynstat_eta_max              =   5.7976967874251E+00
(PID.TID 0000.0001) %MON dynstat_eta_min              =  -1.4174541847224E+01
(PID.TID 0000.0001) %MON dynstat_eta_mean             =  -2.5259596562909E+00
(PID.TID 0000.0001) %MON dynstat_eta_sd               =   4.9416287345015E+00
(PID.TID 0000.0001) %MON dynstat_eta_del2             =   1.9058250271583E-01
(PID.TID 0000.0001) %MON dynstat_uvel_max             =   3.4754657962601E-03
(PID.TID 0000.0001) %MON dynstat_uvel_min             =  -1.2528758602117E-02
(PID.TID 0000.0001) %MON dynstat_uvel_mean            =  -1.1286515598104E-09
(PID.TID 0000.0001) %MON dynstat_uvel_sd              =   3.2926573674482E-04
(PID.TID 0000.0001) %MON dynstat_uvel_del2            =   5.5126613472787E-07
(PID.TID 0000.0001) %MON dynstat_vvel_max             =   1.0126663496502E-02
(PID.TID 0000.0001) %MON dynstat_vvel_min             =  -3.5246282669137E-03
(PID.TID 0000.0001) %MON dynstat_vvel_mean            =  -5.1317924123348E-08
(PID.TID 0000.0001) %MON dynstat_vvel_sd              =   1.8992564528452E-04
(PID.TID 0000.0001) %MON dynstat_vvel_del2            =   5.1157417020053E-07
(PID.TID 0000.0001) %MON dynstat_wvel_max             =   4.9210812070408E-04
(PID.TID 0000.0001) %MON dynstat_wvel_min             =  -4.8838068166607E-04
(PID.TID 0000.0001) %MON dynstat_wvel_mean            =   1.8976861730838E-10
(PID.TID 0000.0001) %MON dynstat_wvel_sd              =   1.0761317143497E-05
(PID.TID 0000.0001) %MON dynstat_wvel_del2            =   4.3426769598645E-08
(PID.TID 0000.0001) %MON dynstat_theta_max            =   1.2000000000000E+00
(PID.TID 0000.0001) %MON dynstat_theta_min            =  -1.0000000000000E+00
(PID.TID 0000.0001) %MON dynstat_theta_mean           =   5.6531115273567E-01
(PID.TID 0000.0001) %MON dynstat_theta_sd             =   8.4901538121646E-01
(PID.TID 0000.0001) %MON dynstat_theta_del2           =   1.4318075676414E-06
(PID.TID 0000.0001) %MON dynstat_salt_max             =   3.4700000000000E+01
(PID.TID 0000.0001) %MON dynstat_salt_min             =   3.4000000000000E+01
(PID.TID 0000.0001) %MON dynstat_salt_mean            =   3.4498038250727E+01
(PID.TID 0000.0001) %MON dynstat_salt_sd              =   2.7014097219794E-01
(PID.TID 0000.0001) %MON dynstat_salt_del2            =   5.6250278904618E-07
(PID.TID 0000.0001) %MON advcfl_uvel_max              =   1.2528758602117E-03
(PID.TID 0000.0001) %MON advcfl_vvel_max              =   1.0126663496502E-03
(PID.TID 0000.0001) %MON advcfl_wvel_max              =   2.4605406035204E-03
(PID.TID 0000.0001) %MON advcfl_W_hf_max              =   2.4605406035204E-03
(PID.TID 0000.0001) %MON pe_b_mean                    =  -6.8251732737179E-01
(PID.TID 0000.0001) %MON ke_max                       =   4.8154814807045E-05
(PID.TID 0000.0001) %MON ke_mean                      =   7.1224254154427E-08
(PID.TID 0000.0001) %MON ke_vol                       =   4.6182957801820E+12
(PID.TID 0000.0001) // =======================================================
(PID.TID 0000.0001) // End MONITOR dynamic field statistics
(PID.TID 0000.0001) // =======================================================
(PID.TID 0000.0001) // =======================================================
(PID.TID 0000.0001) // Begin OBCS MONITOR field statistics
(PID.TID 0000.0001) // =======================================================
(PID.TID 0000.0001) %MON obc_N_vVel_max               =  -6.7087419309220E-08
(PID.TID 0000.0001) %MON obc_N_vVel_min               =  -6.7087419309221E-08
(PID.TID 0000.0001) %MON obc_N_vVel_mean              =  -6.7087419309221E-08
(PID.TID 0000.0001) %MON obc_N_vVel_sd                =   5.7560540319982E-15
(PID.TID 0000.0001) %MON obc_N_vVel_Int               =  -4.4277696744086E+00
(PID.TID 0000.0001) // =======================================================
(PID.TID 0000.0001) // End OBCS MONITOR field statistics
(PID.TID 0000.0001) // =======================================================
 cg2d: Sum(rhs),rhsMax =   3.01075893981110E+00  4.53047377495934E+02
(PID.TID 0000.0001)      cg2d_init_res =   1.74891103106036E-06
(PID.TID 0000.0001)      cg2d_iters(min,last) =      -1      72
(PID.TID 0000.0001)      cg2d_last_res =   9.55544135361537E-12
(PID.TID 0000.0001) // =======================================================
(PID.TID 0000.0001) // Begin MONITOR dynamic field statistics
(PID.TID 0000.0001) // =======================================================
(PID.TID 0000.0001) %MON time_tsnumber                =                   804
(PID.TID 0000.0001) %MON time_secondsf                =   8.0400000000000E+04
(PID.TID 0000.0001) %MON dynstat_eta_max              =   5.7976995746191E+00
(PID.TID 0000.0001) %MON dynstat_eta_min              =  -1.4174536438889E+01
(PID.TID 0000.0001) %MON dynstat_eta_mean             =  -2.5259563739886E+00
(PID.TID 0000.0001) %MON dynstat_eta_sd               =   4.9416277361713E+00
(PID.TID 0000.0001) %MON dynstat_eta_del2             =   1.9058250985022E-01
(PID.TID 0000.0001) %MON dynstat_uvel_max             =   3.4806461946122E-03
(PID.TID 0000.0001) %MON dynstat_uvel_min             =  -1.2562904014962E-02
(PID.TID 0000.0001) %MON dynstat_uvel_mean            =  -1.1282647840828E-09
(PID.TID 0000.0001) %MON dynstat_uvel_sd              =   3.3015015066448E-04
(PID.TID 0000.0001) %MON dynstat_uvel_del2            =   5.5251056861222E-07
(PID.TID 0000.0001) %MON dynstat_vvel_max             =   1.0146806496221E-02
(PID.TID 0000.0001) %MON dynstat_vvel_min             =  -3.5337153595689E-03
(PID.TID 0000.0001) %MON dynstat_vvel_mean            =  -5.1901503091524E-08
(PID.TID 0000.0001) %MON dynstat_vvel_sd              =   1.9037826038761E-04
(PID.TID 0000.0001) %MON dynstat_vvel_del2            =   5.1270478948906E-07
(PID.TID 0000.0001) %MON dynstat_wvel_max             =   4.9360105188114E-04
(PID.TID 0000.0001) %MON dynstat_wvel_min             =  -4.9004523013779E-04
(PID.TID 0000.0001) %MON dynstat_wvel_mean            =   1.8997904622874E-10
(PID.TID 0000.0001) %MON dynstat_wvel_sd              =   1.0812666839361E-05
(PID.TID 0000.0001) %MON dynstat_wvel_del2            =   4.3829719881716E-08
(PID.TID 0000.0001) %MON dynstat_theta_max            =   1.2000000000000E+00
(PID.TID 0000.0001) %MON dynstat_theta_min            =  -1.0000000000000E+00
(PID.TID 0000.0001) %MON dynstat_theta_mean           =   5.6531079407144E-01
(PID.TID 0000.0001) %MON dynstat_theta_sd             =   8.4901524453573E-01
(PID.TID 0000.0001) %MON dynstat_theta_del2           =   1.4346308287173E-06
(PID.TID 0000.0001) %MON dynstat_salt_max             =   3.4700000000000E+01
(PID.TID 0000.0001) %MON dynstat_salt_min             =   3.4000000000000E+01
(PID.TID 0000.0001) %MON dynstat_salt_mean            =   3.4498038107988E+01
(PID.TID 0000.0001) %MON dynstat_salt_sd              =   2.7014092255713E-01
(PID.TID 0000.0001) %MON dynstat_salt_del2            =   5.6365502815590E-07
(PID.TID 0000.0001) %MON advcfl_uvel_max              =   1.2562904014962E-03
(PID.TID 0000.0001) %MON advcfl_vvel_max              =   1.0146806496221E-03
(PID.TID 0000.0001) %MON advcfl_wvel_max              =   2.4680052594057E-03
(PID.TID 0000.0001) %MON advcfl_W_hf_max              =   2.4680052594057E-03
(PID.TID 0000.0001) %MON pe_b_mean                    =  -6.8251639038422E-01
(PID.TID 0000.0001) %MON ke_max                       =   4.8416819742303E-05
(PID.TID 0000.0001) %MON ke_mean                      =   7.1596433887002E-08
(PID.TID 0000.0001) %MON ke_vol                       =   4.6182957996416E+12
(PID.TID 0000.0001) // =======================================================
(PID.TID 0000.0001) // End MONITOR dynamic field statistics
(PID.TID 0000.0001) // =======================================================
(PID.TID 0000.0001) // =======================================================
(PID.TID 0000.0001) // Begin OBCS MONITOR field statistics
(PID.TID 0000.0001) // =======================================================
(PID.TID 0000.0001) %MON obc_N_vVel_max               =  -6.7663901533647E-08
(PID.TID 0000.0001) %MON obc_N_vVel_min               =  -6.7663901533649E-08
(PID.TID 0000.0001) %MON obc_N_vVel_mean              =  -6.7663901533647E-08
(PID.TID 0000.0001) %MON obc_N_vVel_sd                =   1.5151188845081E-14
(PID.TID 0000.0001) %MON obc_N_vVel_Int               =  -4.4658175012207E+00
(PID.TID 0000.0001) // =======================================================
(PID.TID 0000.0001) // End OBCS MONITOR field statistics
(PID.TID 0000.0001) // =======================================================
 cg2d: Sum(rhs),rhsMax =   3.01075507241791E+00  4.53047369608072E+02
(PID.TID 0000.0001)      cg2d_init_res =   1.75659671259280E-06
(PID.TID 0000.0001)      cg2d_iters(min,last) =      -1      72
(PID.TID 0000.0001)      cg2d_last_res =   9.56978870273198E-12
(PID.TID 0000.0001) // =======================================================
(PID.TID 0000.0001) // Begin MONITOR dynamic field statistics
(PID.TID 0000.0001) // =======================================================
(PID.TID 0000.0001) %MON time_tsnumber                =                   805
(PID.TID 0000.0001) %MON time_secondsf                =   8.0500000000000E+04
(PID.TID 0000.0001) %MON dynstat_eta_max              =   5.7977023605518E+00
(PID.TID 0000.0001) %MON dynstat_eta_min              =  -1.4174531012169E+01
(PID.TID 0000.0001) %MON dynstat_eta_mean             =  -2.5259530853576E+00
(PID.TID 0000.0001) %MON dynstat_eta_sd               =   4.9416267360780E+00
(PID.TID 0000.0001) %MON dynstat_eta_del2             =   1.9058251700733E-01
(PID.TID 0000.0001) %MON dynstat_uvel_max             =   3.4858266477809E-03
(PID.TID 0000.0001) %MON dynstat_uvel_min             =  -1.2597119550938E-02
(PID.TID 0000.0001) %MON dynstat_uvel_mean            =  -1.1281635868664E-09
(PID.TID 0000.0001) %MON dynstat_uvel_sd              =   3.3103765206837E-04
(PID.TID 0000.0001) %MON dynstat_uvel_del2            =   5.5375857725964E-07
(PID.TID 0000.0001) %MON dynstat_vvel_max             =   1.0166974596606E-02
(PID.TID 0000.0001) %MON dynstat_vvel_min             =  -3.5428180907164E-03
(PID.TID 0000.0001) %MON dynstat_vvel_mean            =  -5.2512191782373E-08
(PID.TID 0000.0001) %MON dynstat_vvel_sd              =   1.9083329003780E-04
(PID.TID 0000.0001) %MON dynstat_vvel_del2            =   5.1385206534203E-07
(PID.TID 0000.0001) %MON dynstat_wvel_max             =   4.9509722181501E-04
(PID.TID 0000.0001) %MON dynstat_wvel_min             =  -4.9171505897492E-04
(PID.TID 0000.0001) %MON dynstat_wvel_mean            =   1.9023380050551E-10
(PID.TID 0000.0001) %MON dynstat_wvel_sd              =   1.0870729022138E-05
(PID.TID 0000.0001) %MON dynstat_wvel_del2            =   4.4295404454671E-08
(PID.TID 0000.0001) %MON dynstat_theta_max            =   1.2000000000000E+00
(PID.TID 0000.0001) %MON dynstat_theta_min            =  -1.0000000000000E+00
(PID.TID 0000.0001) %MON dynstat_theta_mean           =   5.6531043479437E-01
(PID.TID 0000.0001) %MON dynstat_theta_sd             =   8.4901510747730E-01
(PID.TID 0000.0001) %MON dynstat_theta_del2           =   1.4374441544781E-06
(PID.TID 0000.0001) %MON dynstat_salt_max             =   3.4700000000000E+01
(PID.TID 0000.0001) %MON dynstat_salt_min             =   3.4000000000000E+01
(PID.TID 0000.0001) %MON dynstat_salt_mean            =   3.4498037965002E+01
(PID.TID 0000.0001) %MON dynstat_salt_sd              =   2.7014087277005E-01
(PID.TID 0000.0001) %MON dynstat_salt_del2            =   5.6480575910445E-07
(PID.TID 0000.0001) %MON advcfl_uvel_max              =   1.2597119550938E-03
(PID.TID 0000.0001) %MON advcfl_vvel_max              =   1.0166974596606E-03
(PID.TID 0000.0001) %MON advcfl_wvel_max              =   2.4754861090751E-03
(PID.TID 0000.0001) %MON advcfl_W_hf_max              =   2.4754861090751E-03
(PID.TID 0000.0001) %MON pe_b_mean                    =  -6.8251545151017E-01
(PID.TID 0000.0001) %MON ke_max                       =   4.8680073271246E-05
(PID.TID 0000.0001) %MON ke_mean                      =   7.1971049573665E-08
(PID.TID 0000.0001) %MON ke_vol                       =   4.6182958191385E+12
(PID.TID 0000.0001) // =======================================================
(PID.TID 0000.0001) // End MONITOR dynamic field statistics
(PID.TID 0000.0001) // =======================================================
(PID.TID 0000.0001) // =======================================================
(PID.TID 0000.0001) // Begin OBCS MONITOR field statistics
(PID.TID 0000.0001) // =======================================================
(PID.TID 0000.0001) %MON obc_N_vVel_max               =  -6.8269402652355E-08
(PID.TID 0000.0001) %MON obc_N_vVel_min               =  -6.8269402652356E-08
(PID.TID 0000.0001) %MON obc_N_vVel_mean              =  -6.8269402652356E-08
(PID.TID 0000.0001) %MON obc_N_vVel_sd                =  -2.0747041807313E-28
(PID.TID 0000.0001) %MON obc_N_vVel_Int               =  -4.5057805750555E+00
(PID.TID 0000.0001) // =======================================================
(PID.TID 0000.0001) // End OBCS MONITOR field statistics
(PID.TID 0000.0001) // =======================================================
 cg2d: Sum(rhs),rhsMax =   3.01075119730475E+00  4.53047361737920E+02
(PID.TID 0000.0001)      cg2d_init_res =   1.76478531251651E-06
(PID.TID 0000.0001)      cg2d_iters(min,last) =      -1      72
(PID.TID 0000.0001)      cg2d_last_res =   9.58474557293158E-12
(PID.TID 0000.0001) // =======================================================
(PID.TID 0000.0001) // Begin MONITOR dynamic field statistics
(PID.TID 0000.0001) // =======================================================
(PID.TID 0000.0001) %MON time_tsnumber                =                   806
(PID.TID 0000.0001) %MON time_secondsf                =   8.0600000000000E+04
(PID.TID 0000.0001) %MON dynstat_eta_max              =   5.7977051452691E+00
(PID.TID 0000.0001) %MON dynstat_eta_min              =  -1.4174525566894E+01
(PID.TID 0000.0001) %MON dynstat_eta_mean             =  -2.5259497903485E+00
(PID.TID 0000.0001) %MON dynstat_eta_sd               =   4.9416257342089E+00
(PID.TID 0000.0001) %MON dynstat_eta_del2             =   1.9058252418709E-01
(PID.TID 0000.0001) %MON dynstat_uvel_max             =   3.4910071023617E-03
(PID.TID 0000.0001) %MON dynstat_uvel_min             =  -1.2631405234830E-02
(PID.TID 0000.0001) %MON dynstat_uvel_mean            =  -1.1283504773408E-09
(PID.TID 0000.0001) %MON dynstat_uvel_sd              =   3.3192824250022E-04
(PID.TID 0000.0001) %MON dynstat_uvel_del2            =   5.5501017694566E-07
(PID.TID 0000.0001) %MON dynstat_vvel_max             =   1.0187167751734E-02
(PID.TID 0000.0001) %MON dynstat_vvel_min             =  -3.5519365039729E-03
(PID.TID 0000.0001) %MON dynstat_vvel_mean            =  -5.3144051370353E-08
(PID.TID 0000.0001) %MON dynstat_vvel_sd              =   1.9128990344561E-04
(PID.TID 0000.0001) %MON dynstat_vvel_del2            =   5.1500572665990E-07
(PID.TID 0000.0001) %MON dynstat_wvel_max             =   4.9659663547780E-04
(PID.TID 0000.0001) %MON dynstat_wvel_min             =  -4.9339017677704E-04
(PID.TID 0000.0001) %MON dynstat_wvel_mean            =   1.9053529129695E-10
(PID.TID 0000.0001) %MON dynstat_wvel_sd              =   1.0930786444954E-05
(PID.TID 0000.0001) %MON dynstat_wvel_del2            =   4.4781807535990E-08
(PID.TID 0000.0001) %MON dynstat_theta_max            =   1.2000000000000E+00
(PID.TID 0000.0001) %MON dynstat_theta_min            =  -1.0000000000000E+00
(PID.TID 0000.0001) %MON dynstat_theta_mean           =   5.6531007490993E-01
(PID.TID 0000.0001) %MON dynstat_theta_sd             =   8.4901497003449E-01
(PID.TID 0000.0001) %MON dynstat_theta_del2           =   1.4402597028055E-06
(PID.TID 0000.0001) %MON dynstat_salt_max             =   3.4700000000000E+01
(PID.TID 0000.0001) %MON dynstat_salt_min             =   3.4000000000000E+01
(PID.TID 0000.0001) %MON dynstat_salt_mean            =   3.4498037821771E+01
(PID.TID 0000.0001) %MON dynstat_salt_sd              =   2.7014082283436E-01
(PID.TID 0000.0001) %MON dynstat_salt_del2            =   5.6595811456553E-07
(PID.TID 0000.0001) %MON advcfl_uvel_max              =   1.2631405234830E-03
(PID.TID 0000.0001) %MON advcfl_vvel_max              =   1.0187167751734E-03
(PID.TID 0000.0001) %MON advcfl_wvel_max              =   2.4829831773890E-03
(PID.TID 0000.0001) %MON advcfl_W_hf_max              =   2.4829831773890E-03
(PID.TID 0000.0001) %MON pe_b_mean                    =  -6.8251451073874E-01
(PID.TID 0000.0001) %MON ke_max                       =   4.8944579829370E-05
(PID.TID 0000.0001) %MON ke_mean                      =   7.2347954162078E-08
(PID.TID 0000.0001) %MON ke_vol                       =   4.6182958386730E+12
(PID.TID 0000.0001) // =======================================================
(PID.TID 0000.0001) // End MONITOR dynamic field statistics
(PID.TID 0000.0001) // =======================================================
(PID.TID 0000.0001) // =======================================================
(PID.TID 0000.0001) // Begin OBCS MONITOR field statistics
(PID.TID 0000.0001) // =======================================================
(PID.TID 0000.0001) %MON obc_N_vVel_max               =  -6.8898627940496E-08
(PID.TID 0000.0001) %MON obc_N_vVel_min               =  -6.8898627940496E-08
(PID.TID 0000.0001) %MON obc_N_vVel_mean              =  -6.8898627940496E-08
(PID.TID 0000.0001) %MON obc_N_vVel_sd                =   1.0048591735576E-14
(PID.TID 0000.0001) %MON obc_N_vVel_Int               =  -4.5473094440727E+00
(PID.TID 0000.0001) // =======================================================
(PID.TID 0000.0001) // End OBCS MONITOR field statistics
(PID.TID 0000.0001) // =======================================================
 cg2d: Sum(rhs),rhsMax =   3.01074731441907E+00  4.53047353885991E+02
(PID.TID 0000.0001)      cg2d_init_res =   1.77303600112392E-06
(PID.TID 0000.0001)      cg2d_iters(min,last) =      -1      72
(PID.TID 0000.0001)      cg2d_last_res =   9.60055688449356E-12
(PID.TID 0000.0001) // =======================================================
(PID.TID 0000.0001) // Begin MONITOR dynamic field statistics
(PID.TID 0000.0001) // =======================================================
(PID.TID 0000.0001) %MON time_tsnumber                =                   807
(PID.TID 0000.0001) %MON time_secondsf                =   8.0700000000000E+04
(PID.TID 0000.0001) %MON dynstat_eta_max              =   5.7977079288343E+00
(PID.TID 0000.0001) %MON dynstat_eta_min              =  -1.4174520102913E+01
(PID.TID 0000.0001) %MON dynstat_eta_mean             =  -2.5259464889202E+00
(PID.TID 0000.0001) %MON dynstat_eta_sd               =   4.9416247305569E+00
(PID.TID 0000.0001) %MON dynstat_eta_del2             =   1.9058253138962E-01
(PID.TID 0000.0001) %MON dynstat_uvel_max             =   3.4961875050961E-03
(PID.TID 0000.0001) %MON dynstat_uvel_min             =  -1.2665761090618E-02
(PID.TID 0000.0001) %MON dynstat_uvel_mean            =  -1.1288248993720E-09
(PID.TID 0000.0001) %MON dynstat_uvel_sd              =   3.3282192323757E-04
(PID.TID 0000.0001) %MON dynstat_uvel_del2            =   5.5626538205670E-07
(PID.TID 0000.0001) %MON dynstat_vvel_max             =   1.0207385915100E-02
(PID.TID 0000.0001) %MON dynstat_vvel_min             =  -3.5610706430305E-03
(PID.TID 0000.0001) %MON dynstat_vvel_mean            =  -5.3790966226471E-08
(PID.TID 0000.0001) %MON dynstat_vvel_sd              =   1.9174725290504E-04
(PID.TID 0000.0001) %MON dynstat_vvel_del2            =   5.1615536893779E-07
(PID.TID 0000.0001) %MON dynstat_wvel_max             =   4.9809929783272E-04
(PID.TID 0000.0001) %MON dynstat_wvel_min             =  -4.9507059215946E-04
(PID.TID 0000.0001) %MON dynstat_wvel_mean            =   1.9088479045100E-10
(PID.TID 0000.0001) %MON dynstat_wvel_sd              =   1.0988099520861E-05
(PID.TID 0000.0001) %MON dynstat_wvel_del2            =   4.5246934494683E-08
(PID.TID 0000.0001) %MON dynstat_theta_max            =   1.2000000000000E+00
(PID.TID 0000.0001) %MON dynstat_theta_min            =  -1.0000000000000E+00
(PID.TID 0000.0001) %MON dynstat_theta_mean           =   5.6530971442322E-01
(PID.TID 0000.0001) %MON dynstat_theta_sd             =   8.4901483220491E-01
(PID.TID 0000.0001) %MON dynstat_theta_del2           =   1.4430895693566E-06
(PID.TID 0000.0001) %MON dynstat_salt_max             =   3.4700000000000E+01
(PID.TID 0000.0001) %MON dynstat_salt_min             =   3.4000000000000E+01
(PID.TID 0000.0001) %MON dynstat_salt_mean            =   3.4498037678296E+01
(PID.TID 0000.0001) %MON dynstat_salt_sd              =   2.7014077274928E-01
(PID.TID 0000.0001) %MON dynstat_salt_del2            =   5.6711509461049E-07
(PID.TID 0000.0001) %MON advcfl_uvel_max              =   1.2665761090618E-03
(PID.TID 0000.0001) %MON advcfl_vvel_max              =   1.0207385915100E-03
(PID.TID 0000.0001) %MON advcfl_wvel_max              =   2.4904964891636E-03
(PID.TID 0000.0001) %MON advcfl_W_hf_max              =   2.4904964891636E-03
(PID.TID 0000.0001) %MON pe_b_mean                    =  -6.8251356806095E-01
(PID.TID 0000.0001) %MON ke_max                       =   4.9210343856420E-05
(PID.TID 0000.0001) %MON ke_mean                      =   7.2726995796333E-08
(PID.TID 0000.0001) %MON ke_vol                       =   4.6182958582453E+12
(PID.TID 0000.0001) // =======================================================
(PID.TID 0000.0001) // End MONITOR dynamic field statistics
(PID.TID 0000.0001) // =======================================================
(PID.TID 0000.0001) // =======================================================
(PID.TID 0000.0001) // Begin OBCS MONITOR field statistics
(PID.TID 0000.0001) // =======================================================
(PID.TID 0000.0001) %MON obc_N_vVel_max               =  -6.9546022731715E-08
(PID.TID 0000.0001) %MON obc_N_vVel_min               =  -6.9546022731716E-08
(PID.TID 0000.0001) %MON obc_N_vVel_mean              =  -6.9546022731716E-08
(PID.TID 0000.0001) %MON obc_N_vVel_sd                =  -1.3805065841368E-28
(PID.TID 0000.0001) %MON obc_N_vVel_Int               =  -4.5900375002933E+00
(PID.TID 0000.0001) // =======================================================
(PID.TID 0000.0001) // End OBCS MONITOR field statistics
(PID.TID 0000.0001) // =======================================================
 cg2d: Sum(rhs),rhsMax =   3.01074342371840E+00  4.53047346052696E+02
(PID.TID 0000.0001)      cg2d_init_res =   1.78090039071092E-06
(PID.TID 0000.0001)      cg2d_iters(min,last) =      -1      72
(PID.TID 0000.0001)      cg2d_last_res =   9.61738870321885E-12
(PID.TID 0000.0001) // =======================================================
(PID.TID 0000.0001) // Begin MONITOR dynamic field statistics
(PID.TID 0000.0001) // =======================================================
(PID.TID 0000.0001) %MON time_tsnumber                =                   808
(PID.TID 0000.0001) %MON time_secondsf                =   8.0800000000000E+04
(PID.TID 0000.0001) %MON dynstat_eta_max              =   5.7977107112994E+00
(PID.TID 0000.0001) %MON dynstat_eta_min              =  -1.4174514620087E+01
(PID.TID 0000.0001) %MON dynstat_eta_mean             =  -2.5259431810393E+00
(PID.TID 0000.0001) %MON dynstat_eta_sd               =   4.9416237251148E+00
(PID.TID 0000.0001) %MON dynstat_eta_del2             =   1.9058253861488E-01
(PID.TID 0000.0001) %MON dynstat_uvel_max             =   3.5013678037572E-03
(PID.TID 0000.0001) %MON dynstat_uvel_min             =  -1.2700187141460E-02
(PID.TID 0000.0001) %MON dynstat_uvel_mean            =  -1.1295822319883E-09
(PID.TID 0000.0001) %MON dynstat_uvel_sd              =   3.3371869525853E-04
(PID.TID 0000.0001) %MON dynstat_uvel_del2            =   5.5752420432674E-07
(PID.TID 0000.0001) %MON dynstat_vvel_max             =   1.0227629040178E-02
(PID.TID 0000.0001) %MON dynstat_vvel_min             =  -3.5702205515573E-03
(PID.TID 0000.0001) %MON dynstat_vvel_mean            =  -5.4446829218185E-08
(PID.TID 0000.0001) %MON dynstat_vvel_sd              =   1.9220455139097E-04
(PID.TID 0000.0001) %MON dynstat_vvel_del2            =   5.1729141684851E-07
(PID.TID 0000.0001) %MON dynstat_wvel_max             =   4.9960521382647E-04
(PID.TID 0000.0001) %MON dynstat_wvel_min             =  -4.9675631386022E-04
(PID.TID 0000.0001) %MON dynstat_wvel_mean            =   1.9128226030006E-10
(PID.TID 0000.0001) %MON dynstat_wvel_sd              =   1.1038341819056E-05
(PID.TID 0000.0001) %MON dynstat_wvel_del2            =   4.5652636902108E-08
(PID.TID 0000.0001) %MON dynstat_theta_max            =   1.2000000000000E+00
(PID.TID 0000.0001) %MON dynstat_theta_min            =  -1.0000000000000E+00
(PID.TID 0000.0001) %MON dynstat_theta_mean           =   5.6530935333881E-01
(PID.TID 0000.0001) %MON dynstat_theta_sd             =   8.4901469399161E-01
(PID.TID 0000.0001) %MON dynstat_theta_del2           =   1.4459447484606E-06
(PID.TID 0000.0001) %MON dynstat_salt_max             =   3.4700000000000E+01
(PID.TID 0000.0001) %MON dynstat_salt_min             =   3.4000000000000E+01
(PID.TID 0000.0001) %MON dynstat_salt_mean            =   3.4498037534579E+01
(PID.TID 0000.0001) %MON dynstat_salt_sd              =   2.7014072251571E-01
(PID.TID 0000.0001) %MON dynstat_salt_del2            =   5.6827952743616E-07
(PID.TID 0000.0001) %MON advcfl_uvel_max              =   1.2700187141460E-03
(PID.TID 0000.0001) %MON advcfl_vvel_max              =   1.0227629040178E-03
(PID.TID 0000.0001) %MON advcfl_wvel_max              =   2.4980260691324E-03
(PID.TID 0000.0001) %MON advcfl_W_hf_max              =   2.4980260691324E-03
(PID.TID 0000.0001) %MON pe_b_mean                    =  -6.8251262346942E-01
(PID.TID 0000.0001) %MON ke_max                       =   4.9477369795255E-05
(PID.TID 0000.0001) %MON ke_mean                      =   7.3108032670666E-08
(PID.TID 0000.0001) %MON ke_vol                       =   4.6182958778558E+12
(PID.TID 0000.0001) // =======================================================
(PID.TID 0000.0001) // End MONITOR dynamic field statistics
(PID.TID 0000.0001) // =======================================================
(PID.TID 0000.0001) // =======================================================
(PID.TID 0000.0001) // Begin OBCS MONITOR field statistics
(PID.TID 0000.0001) // =======================================================
(PID.TID 0000.0001) %MON obc_N_vVel_max               =  -7.0205920203327E-08
(PID.TID 0000.0001) %MON obc_N_vVel_min               =  -7.0205920203328E-08
(PID.TID 0000.0001) %MON obc_N_vVel_mean              =  -7.0205920203327E-08
(PID.TID 0000.0001) %MON obc_N_vVel_sd                =   1.9860273225978E-15
(PID.TID 0000.0001) %MON obc_N_vVel_Int               =  -4.6335907334196E+00
(PID.TID 0000.0001) // =======================================================
(PID.TID 0000.0001) // End OBCS MONITOR field statistics
(PID.TID 0000.0001) // =======================================================
 cg2d: Sum(rhs),rhsMax =   3.01073952516657E+00  4.53047338238384E+02
(PID.TID 0000.0001)      cg2d_init_res =   1.78799388746097E-06
(PID.TID 0000.0001)      cg2d_iters(min,last) =      -1      72
(PID.TID 0000.0001)      cg2d_last_res =   9.63521564736583E-12
(PID.TID 0000.0001) // =======================================================
(PID.TID 0000.0001) // Begin MONITOR dynamic field statistics
(PID.TID 0000.0001) // =======================================================
(PID.TID 0000.0001) %MON time_tsnumber                =                   809
(PID.TID 0000.0001) %MON time_secondsf                =   8.0900000000000E+04
(PID.TID 0000.0001) %MON dynstat_eta_max              =   5.7977134927184E+00
(PID.TID 0000.0001) %MON dynstat_eta_min              =  -1.4174509118291E+01
(PID.TID 0000.0001) %MON dynstat_eta_mean             =  -2.5259398666774E+00
(PID.TID 0000.0001) %MON dynstat_eta_sd               =   4.9416227178799E+00
(PID.TID 0000.0001) %MON dynstat_eta_del2             =   1.9058254586295E-01
(PID.TID 0000.0001) %MON dynstat_uvel_max             =   3.5065479508685E-03
(PID.TID 0000.0001) %MON dynstat_uvel_min             =  -1.2734683410407E-02
(PID.TID 0000.0001) %MON dynstat_uvel_mean            =  -1.1306124390716E-09
(PID.TID 0000.0001) %MON dynstat_uvel_sd              =   3.3461855934592E-04
(PID.TID 0000.0001) %MON dynstat_uvel_del2            =   5.5878665179188E-07
(PID.TID 0000.0001) %MON dynstat_vvel_max             =   1.0247897082041E-02
(PID.TID 0000.0001) %MON dynstat_vvel_min             =  -3.5793862738105E-03
(PID.TID 0000.0001) %MON dynstat_vvel_mean            =  -5.5105720877508E-08
(PID.TID 0000.0001) %MON dynstat_vvel_sd              =   1.9266114302674E-04
(PID.TID 0000.0001) %MON dynstat_vvel_del2            =   5.1840599217477E-07
(PID.TID 0000.0001) %MON dynstat_wvel_max             =   5.0111438838018E-04
(PID.TID 0000.0001) %MON dynstat_wvel_min             =  -4.9844735066562E-04
(PID.TID 0000.0001) %MON dynstat_wvel_mean            =   1.9172651453774E-10
(PID.TID 0000.0001) %MON dynstat_wvel_sd              =   1.1077969751604E-05
(PID.TID 0000.0001) %MON dynstat_wvel_del2            =   4.5967651974460E-08
(PID.TID 0000.0001) %MON dynstat_theta_max            =   1.2000000000000E+00
(PID.TID 0000.0001) %MON dynstat_theta_min            =  -1.0000000000000E+00
(PID.TID 0000.0001) %MON dynstat_theta_mean           =   5.6530899166020E-01
(PID.TID 0000.0001) %MON dynstat_theta_sd             =   8.4901455540090E-01
(PID.TID 0000.0001) %MON dynstat_theta_del2           =   1.4488333937227E-06
(PID.TID 0000.0001) %MON dynstat_salt_max             =   3.4700000000000E+01
(PID.TID 0000.0001) %MON dynstat_salt_min             =   3.4000000000000E+01
(PID.TID 0000.0001) %MON dynstat_salt_mean            =   3.4498037390621E+01
(PID.TID 0000.0001) %MON dynstat_salt_sd              =   2.7014067213562E-01
(PID.TID 0000.0001) %MON dynstat_salt_del2            =   5.6945306056822E-07
(PID.TID 0000.0001) %MON advcfl_uvel_max              =   1.2734683410407E-03
(PID.TID 0000.0001) %MON advcfl_vvel_max              =   1.0247897082041E-03
(PID.TID 0000.0001) %MON advcfl_wvel_max              =   2.5055719419009E-03
(PID.TID 0000.0001) %MON advcfl_W_hf_max              =   2.5055719419009E-03
(PID.TID 0000.0001) %MON pe_b_mean                    =  -6.8251167695778E-01
(PID.TID 0000.0001) %MON ke_max                       =   4.9745662093818E-05
(PID.TID 0000.0001) %MON ke_mean                      =   7.3490946774082E-08
(PID.TID 0000.0001) %MON ke_vol                       =   4.6182958975046E+12
(PID.TID 0000.0001) // =======================================================
(PID.TID 0000.0001) // End MONITOR dynamic field statistics
(PID.TID 0000.0001) // =======================================================
(PID.TID 0000.0001) // =======================================================
(PID.TID 0000.0001) // Begin OBCS MONITOR field statistics
(PID.TID 0000.0001) // =======================================================
(PID.TID 0000.0001) %MON obc_N_vVel_max               =  -7.0872706155047E-08
(PID.TID 0000.0001) %MON obc_N_vVel_min               =  -7.0872706155050E-08
(PID.TID 0000.0001) %MON obc_N_vVel_mean              =  -7.0872706155047E-08
(PID.TID 0000.0001) %MON obc_N_vVel_sd                =   2.0350724194510E-14
(PID.TID 0000.0001) %MON obc_N_vVel_Int               =  -4.6775986062331E+00
(PID.TID 0000.0001) // =======================================================
(PID.TID 0000.0001) // End OBCS MONITOR field statistics
(PID.TID 0000.0001) // =======================================================
 cg2d: Sum(rhs),rhsMax =   3.01073561873629E+00  4.53047330443316E+02
(PID.TID 0000.0001)      cg2d_init_res =   1.79399277762673E-06
(PID.TID 0000.0001)      cg2d_iters(min,last) =      -1      72
(PID.TID 0000.0001)      cg2d_last_res =   9.65416056474139E-12
(PID.TID 0000.0001) // =======================================================
(PID.TID 0000.0001) // Begin MONITOR dynamic field statistics
(PID.TID 0000.0001) // =======================================================
(PID.TID 0000.0001) %MON time_tsnumber                =                   810
(PID.TID 0000.0001) %MON time_secondsf                =   8.1000000000000E+04
(PID.TID 0000.0001) %MON dynstat_eta_max              =   5.7977162731499E+00
(PID.TID 0000.0001) %MON dynstat_eta_min              =  -1.4174503597414E+01
(PID.TID 0000.0001) %MON dynstat_eta_mean             =  -2.5259365458131E+00
(PID.TID 0000.0001) %MON dynstat_eta_sd               =   4.9416217088492E+00
(PID.TID 0000.0001) %MON dynstat_eta_del2             =   1.9058255313379E-01
(PID.TID 0000.0001) %MON dynstat_uvel_max             =   3.5117278987862E-03
(PID.TID 0000.0001) %MON dynstat_uvel_min             =  -1.2769249926605E-02
(PID.TID 0000.0001) %MON dynstat_uvel_mean            =  -1.1319174893721E-09
(PID.TID 0000.0001) %MON dynstat_uvel_sd              =   3.3552151651751E-04
(PID.TID 0000.0001) %MON dynstat_uvel_del2            =   5.6005272703921E-07
(PID.TID 0000.0001) %MON dynstat_vvel_max             =   1.0268189994829E-02
(PID.TID 0000.0001) %MON dynstat_vvel_min             =  -3.5885678559984E-03
(PID.TID 0000.0001) %MON dynstat_vvel_mean            =  -5.5762051296630E-08
(PID.TID 0000.0001) %MON dynstat_vvel_sd              =   1.9311656042793E-04
(PID.TID 0000.0001) %MON dynstat_vvel_del2            =   5.1949361156661E-07
(PID.TID 0000.0001) %MON dynstat_wvel_max             =   5.0262682642289E-04
(PID.TID 0000.0001) %MON dynstat_wvel_min             =  -5.0014371133974E-04
(PID.TID 0000.0001) %MON dynstat_wvel_mean            =   1.9221575120212E-10
(PID.TID 0000.0001) %MON dynstat_wvel_sd              =   1.1104503295581E-05
(PID.TID 0000.0001) %MON dynstat_wvel_del2            =   4.6169778580804E-08
(PID.TID 0000.0001) %MON dynstat_theta_max            =   1.2000000000000E+00
(PID.TID 0000.0001) %MON dynstat_theta_min            =  -1.0000000000000E+00
(PID.TID 0000.0001) %MON dynstat_theta_mean           =   5.6530862939002E-01
(PID.TID 0000.0001) %MON dynstat_theta_sd             =   8.4901441643824E-01
(PID.TID 0000.0001) %MON dynstat_theta_del2           =   1.4517610361224E-06
(PID.TID 0000.0001) %MON dynstat_salt_max             =   3.4700000000000E+01
(PID.TID 0000.0001) %MON dynstat_salt_min             =   3.4000000000000E+01
(PID.TID 0000.0001) %MON dynstat_salt_mean            =   3.4498037246422E+01
(PID.TID 0000.0001) %MON dynstat_salt_sd              =   2.7014062161081E-01
(PID.TID 0000.0001) %MON dynstat_salt_del2            =   5.7063797162941E-07
(PID.TID 0000.0001) %MON advcfl_uvel_max              =   1.2769249926605E-03
(PID.TID 0000.0001) %MON advcfl_vvel_max              =   1.0268189994829E-03
(PID.TID 0000.0001) %MON advcfl_wvel_max              =   2.5131341321144E-03
(PID.TID 0000.0001) %MON advcfl_W_hf_max              =   2.5131341321144E-03
(PID.TID 0000.0001) %MON pe_b_mean                    =  -6.8251072852121E-01
(PID.TID 0000.0001) %MON ke_max                       =   5.0015225241833E-05
(PID.TID 0000.0001) %MON ke_mean                      =   7.3875655406741E-08
(PID.TID 0000.0001) %MON ke_vol                       =   4.6182959171919E+12
(PID.TID 0000.0001) // =======================================================
(PID.TID 0000.0001) // End MONITOR dynamic field statistics
(PID.TID 0000.0001) // =======================================================
(PID.TID 0000.0001) // =======================================================
(PID.TID 0000.0001) // Begin OBCS MONITOR field statistics
(PID.TID 0000.0001) // =======================================================
(PID.TID 0000.0001) %MON obc_N_vVel_max               =  -7.1540959730678E-08
(PID.TID 0000.0001) %MON obc_N_vVel_min               =  -7.1540959730679E-08
(PID.TID 0000.0001) %MON obc_N_vVel_mean              =  -7.1540959730678E-08
(PID.TID 0000.0001) %MON obc_N_vVel_sd                =   1.6805124339591E-14
(PID.TID 0000.0001) %MON obc_N_vVel_Int               =  -4.7217033422247E+00
(PID.TID 0000.0001) // =======================================================
(PID.TID 0000.0001) // End OBCS MONITOR field statistics
(PID.TID 0000.0001) // =======================================================
 cg2d: Sum(rhs),rhsMax =   3.01073170440812E+00  4.53047322667637E+02
(PID.TID 0000.0001)      cg2d_init_res =   1.79870114275821E-06
(PID.TID 0000.0001)      cg2d_iters(min,last) =      -1      72
(PID.TID 0000.0001)      cg2d_last_res =   9.67411744459248E-12
(PID.TID 0000.0001) // =======================================================
(PID.TID 0000.0001) // Begin MONITOR dynamic field statistics
(PID.TID 0000.0001) // =======================================================
(PID.TID 0000.0001) %MON time_tsnumber                =                   811
(PID.TID 0000.0001) %MON time_secondsf                =   8.1100000000000E+04
(PID.TID 0000.0001) %MON dynstat_eta_max              =   5.7977190526463E+00
(PID.TID 0000.0001) %MON dynstat_eta_min              =  -1.4174498057360E+01
(PID.TID 0000.0001) %MON dynstat_eta_mean             =  -2.5259332184309E+00
(PID.TID 0000.0001) %MON dynstat_eta_sd               =   4.9416206980298E+00
(PID.TID 0000.0001) %MON dynstat_eta_del2             =   1.9058256042781E-01
(PID.TID 0000.0001) %MON dynstat_uvel_max             =   3.5169075998081E-03
(PID.TID 0000.0001) %MON dynstat_uvel_min             =  -1.2803886728069E-02
(PID.TID 0000.0001) %MON dynstat_uvel_mean            =  -1.1334482761146E-09
(PID.TID 0000.0001) %MON dynstat_uvel_sd              =   3.3642756659491E-04
(PID.TID 0000.0001) %MON dynstat_uvel_del2            =   5.6132243151179E-07
(PID.TID 0000.0001) %MON dynstat_vvel_max             =   1.0288507731938E-02
(PID.TID 0000.0001) %MON dynstat_vvel_min             =  -3.5977653405750E-03
(PID.TID 0000.0001) %MON dynstat_vvel_mean            =  -5.6410749945348E-08
(PID.TID 0000.0001) %MON dynstat_vvel_sd              =   1.9357056078637E-04
(PID.TID 0000.0001) %MON dynstat_vvel_del2            =   5.2055162889599E-07
(PID.TID 0000.0001) %MON dynstat_wvel_max             =   5.0414253284943E-04
(PID.TID 0000.0001) %MON dynstat_wvel_min             =  -5.0184540463558E-04
(PID.TID 0000.0001) %MON dynstat_wvel_mean            =   1.9274439130980E-10
(PID.TID 0000.0001) %MON dynstat_wvel_sd              =   1.1116704918420E-05
(PID.TID 0000.0001) %MON dynstat_wvel_del2            =   4.6247212915646E-08
(PID.TID 0000.0001) %MON dynstat_theta_max            =   1.2000000000000E+00
(PID.TID 0000.0001) %MON dynstat_theta_min            =  -1.0000000000000E+00
(PID.TID 0000.0001) %MON dynstat_theta_mean           =   5.6530826652980E-01
(PID.TID 0000.0001) %MON dynstat_theta_sd             =   8.4901427710893E-01
(PID.TID 0000.0001) %MON dynstat_theta_del2           =   1.4547314686422E-06
(PID.TID 0000.0001) %MON dynstat_salt_max             =   3.4700000000000E+01
(PID.TID 0000.0001) %MON dynstat_salt_min             =   3.4000000000000E+01
(PID.TID 0000.0001) %MON dynstat_salt_mean            =   3.4498037101982E+01
(PID.TID 0000.0001) %MON dynstat_salt_sd              =   2.7014057094262E-01
(PID.TID 0000.0001) %MON dynstat_salt_del2            =   5.7183489931264E-07
(PID.TID 0000.0001) %MON advcfl_uvel_max              =   1.2803886728069E-03
(PID.TID 0000.0001) %MON advcfl_vvel_max              =   1.0288507731938E-03
(PID.TID 0000.0001) %MON advcfl_wvel_max              =   2.5207126642472E-03
(PID.TID 0000.0001) %MON advcfl_W_hf_max              =   2.5207126642472E-03
(PID.TID 0000.0001) %MON pe_b_mean                    =  -6.8250977815591E-01
(PID.TID 0000.0001) %MON ke_max                       =   5.0286063862977E-05
(PID.TID 0000.0001) %MON ke_mean                      =   7.4262118127449E-08
(PID.TID 0000.0001) %MON ke_vol                       =   4.6182959369179E+12
(PID.TID 0000.0001) // =======================================================
(PID.TID 0000.0001) // End MONITOR dynamic field statistics
(PID.TID 0000.0001) // =======================================================
(PID.TID 0000.0001) // =======================================================
(PID.TID 0000.0001) // Begin OBCS MONITOR field statistics
(PID.TID 0000.0001) // =======================================================
(PID.TID 0000.0001) %MON obc_N_vVel_max               =  -7.2205620469774E-08
(PID.TID 0000.0001) %MON obc_N_vVel_min               =  -7.2205620469775E-08
(PID.TID 0000.0001) %MON obc_N_vVel_mean              =  -7.2205620469775E-08
(PID.TID 0000.0001) %MON obc_N_vVel_sd                =  -6.4686594228123E-29
(PID.TID 0000.0001) %MON obc_N_vVel_Int               =  -4.7655709510051E+00
(PID.TID 0000.0001) // =======================================================
(PID.TID 0000.0001) // End OBCS MONITOR field statistics
(PID.TID 0000.0001) // =======================================================
 cg2d: Sum(rhs),rhsMax =   3.01072778216748E+00  4.53047314911444E+02
(PID.TID 0000.0001)      cg2d_init_res =   1.80200842981601E-06
(PID.TID 0000.0001)      cg2d_iters(min,last) =      -1      72
(PID.TID 0000.0001)      cg2d_last_res =   9.69470770815832E-12
(PID.TID 0000.0001) // =======================================================
(PID.TID 0000.0001) // Begin MONITOR dynamic field statistics
(PID.TID 0000.0001) // =======================================================
(PID.TID 0000.0001) %MON time_tsnumber                =                   812
(PID.TID 0000.0001) %MON time_secondsf                =   8.1200000000000E+04
(PID.TID 0000.0001) %MON dynstat_eta_max              =   5.7977218312633E+00
(PID.TID 0000.0001) %MON dynstat_eta_min              =  -1.4174492498037E+01
(PID.TID 0000.0001) %MON dynstat_eta_mean             =  -2.5259298845190E+00
(PID.TID 0000.0001) %MON dynstat_eta_sd               =   4.9416196854186E+00
(PID.TID 0000.0001) %MON dynstat_eta_del2             =   1.9058256774471E-01
(PID.TID 0000.0001) %MON dynstat_uvel_max             =   3.5220870062087E-03
(PID.TID 0000.0001) %MON dynstat_uvel_min             =  -1.2838593817015E-02
(PID.TID 0000.0001) %MON dynstat_uvel_mean            =  -1.1351844728147E-09
(PID.TID 0000.0001) %MON dynstat_uvel_sd              =   3.3733670930279E-04
(PID.TID 0000.0001) %MON dynstat_uvel_del2            =   5.6259576232449E-07
(PID.TID 0000.0001) %MON dynstat_vvel_max             =   1.0308850246042E-02
(PID.TID 0000.0001) %MON dynstat_vvel_min             =  -3.6069787706587E-03
(PID.TID 0000.0001) %MON dynstat_vvel_mean            =  -5.7047343559786E-08
(PID.TID 0000.0001) %MON dynstat_vvel_sd              =   1.9402314404064E-04
(PID.TID 0000.0001) %MON dynstat_vvel_del2            =   5.2158043617681E-07
(PID.TID 0000.0001) %MON dynstat_wvel_max             =   5.0566151254864E-04
(PID.TID 0000.0001) %MON dynstat_wvel_min             =  -5.0355243990802E-04
(PID.TID 0000.0001) %MON dynstat_wvel_mean            =   1.9330845693500E-10
(PID.TID 0000.0001) %MON dynstat_wvel_sd              =   1.1114653637039E-05
(PID.TID 0000.0001) %MON dynstat_wvel_del2            =   4.6199123221248E-08
(PID.TID 0000.0001) %MON dynstat_theta_max            =   1.2000000000000E+00
(PID.TID 0000.0001) %MON dynstat_theta_min            =  -1.0000000000000E+00
(PID.TID 0000.0001) %MON dynstat_theta_mean           =   5.6530790307976E-01
(PID.TID 0000.0001) %MON dynstat_theta_sd             =   8.4901413741503E-01
(PID.TID 0000.0001) %MON dynstat_theta_del2           =   1.4577444376896E-06
(PID.TID 0000.0001) %MON dynstat_salt_max             =   3.4700000000000E+01
(PID.TID 0000.0001) %MON dynstat_salt_min             =   3.4000000000000E+01
(PID.TID 0000.0001) %MON dynstat_salt_mean            =   3.4498036957302E+01
(PID.TID 0000.0001) %MON dynstat_salt_sd              =   2.7014052013187E-01
(PID.TID 0000.0001) %MON dynstat_salt_del2            =   5.7304384641535E-07
(PID.TID 0000.0001) %MON advcfl_uvel_max              =   1.2838593817015E-03
(PID.TID 0000.0001) %MON advcfl_vvel_max              =   1.0308850246042E-03
(PID.TID 0000.0001) %MON advcfl_wvel_max              =   2.5283075627432E-03
(PID.TID 0000.0001) %MON advcfl_W_hf_max              =   2.5283075627432E-03
(PID.TID 0000.0001) %MON pe_b_mean                    =  -6.8250882585851E-01
(PID.TID 0000.0001) %MON ke_max                       =   5.0558182265595E-05
(PID.TID 0000.0001) %MON ke_mean                      =   7.4650341152034E-08
(PID.TID 0000.0001) %MON ke_vol                       =   4.6182959566825E+12
(PID.TID 0000.0001) // =======================================================
(PID.TID 0000.0001) // End MONITOR dynamic field statistics
(PID.TID 0000.0001) // =======================================================
(PID.TID 0000.0001) // =======================================================
(PID.TID 0000.0001) // Begin OBCS MONITOR field statistics
(PID.TID 0000.0001) // =======================================================
(PID.TID 0000.0001) %MON obc_N_vVel_max               =  -7.2862099309679E-08
(PID.TID 0000.0001) %MON obc_N_vVel_min               =  -7.2862099309680E-08
(PID.TID 0000.0001) %MON obc_N_vVel_mean              =  -7.2862099309679E-08
(PID.TID 0000.0001) %MON obc_N_vVel_sd                =   1.2178088937988E-14
(PID.TID 0000.0001) %MON obc_N_vVel_Int               =  -4.8088985544388E+00
(PID.TID 0000.0001) // =======================================================
(PID.TID 0000.0001) // End OBCS MONITOR field statistics
(PID.TID 0000.0001) // =======================================================
 cg2d: Sum(rhs),rhsMax =   3.01072385200649E+00  4.53047307174691E+02
(PID.TID 0000.0001)      cg2d_init_res =   1.80397972641748E-06
(PID.TID 0000.0001)      cg2d_iters(min,last) =      -1      72
(PID.TID 0000.0001)      cg2d_last_res =   9.71639249376047E-12
(PID.TID 0000.0001) // =======================================================
(PID.TID 0000.0001) // Begin MONITOR dynamic field statistics
(PID.TID 0000.0001) // =======================================================
(PID.TID 0000.0001) %MON time_tsnumber                =                   813
(PID.TID 0000.0001) %MON time_secondsf                =   8.1300000000000E+04
(PID.TID 0000.0001) %MON dynstat_eta_max              =   5.7977246090625E+00
(PID.TID 0000.0001) %MON dynstat_eta_min              =  -1.4174486919366E+01
(PID.TID 0000.0001) %MON dynstat_eta_mean             =  -2.5259265440706E+00
(PID.TID 0000.0001) %MON dynstat_eta_sd               =   4.9416186710178E+00
(PID.TID 0000.0001) %MON dynstat_eta_del2             =   1.9058257508467E-01
(PID.TID 0000.0001) %MON dynstat_uvel_max             =   3.5272660703729E-03
(PID.TID 0000.0001) %MON dynstat_uvel_min             =  -1.2873371216739E-02
(PID.TID 0000.0001) %MON dynstat_uvel_mean            =  -1.1371009901527E-09
(PID.TID 0000.0001) %MON dynstat_uvel_sd              =   3.3824894411274E-04
(PID.TID 0000.0001) %MON dynstat_uvel_del2            =   5.6387271351326E-07
(PID.TID 0000.0001) %MON dynstat_vvel_max             =   1.0329217489146E-02
(PID.TID 0000.0001) %MON dynstat_vvel_min             =  -3.6162081919908E-03
(PID.TID 0000.0001) %MON dynstat_vvel_mean            =  -5.7668072846983E-08
(PID.TID 0000.0001) %MON dynstat_vvel_sd              =   1.9447454654220E-04
(PID.TID 0000.0001) %MON dynstat_vvel_del2            =   5.2258336591098E-07
(PID.TID 0000.0001) %MON dynstat_wvel_max             =   5.0718377037748E-04
(PID.TID 0000.0001) %MON dynstat_wvel_min             =  -5.0526482596773E-04
(PID.TID 0000.0001) %MON dynstat_wvel_mean            =   1.9390247654646E-10
(PID.TID 0000.0001) %MON dynstat_wvel_sd              =   1.1099713150478E-05
(PID.TID 0000.0001) %MON dynstat_wvel_del2            =   4.6035501889402E-08
(PID.TID 0000.0001) %MON dynstat_theta_max            =   1.2000000000000E+00
(PID.TID 0000.0001) %MON dynstat_theta_min            =  -1.0000000000000E+00
(PID.TID 0000.0001) %MON dynstat_theta_mean           =   5.6530753903895E-01
(PID.TID 0000.0001) %MON dynstat_theta_sd             =   8.4901399735740E-01
(PID.TID 0000.0001) %MON dynstat_theta_del2           =   1.4607960921311E-06
(PID.TID 0000.0001) %MON dynstat_salt_max             =   3.4700000000000E+01
(PID.TID 0000.0001) %MON dynstat_salt_min             =   3.4000000000000E+01
(PID.TID 0000.0001) %MON dynstat_salt_mean            =   3.4498036812381E+01
(PID.TID 0000.0001) %MON dynstat_salt_sd              =   2.7014046917859E-01
(PID.TID 0000.0001) %MON dynstat_salt_del2            =   5.7426370540923E-07
(PID.TID 0000.0001) %MON advcfl_uvel_max              =   1.2873371216739E-03
(PID.TID 0000.0001) %MON advcfl_vvel_max              =   1.0329217489146E-03
(PID.TID 0000.0001) %MON advcfl_wvel_max              =   2.5359188518874E-03
(PID.TID 0000.0001) %MON advcfl_W_hf_max              =   2.5359188518874E-03
(PID.TID 0000.0001) %MON pe_b_mean                    =  -6.8250787162658E-01
(PID.TID 0000.0001) %MON ke_max                       =   5.0831584935726E-05
(PID.TID 0000.0001) %MON ke_mean                      =   7.5040376619973E-08
(PID.TID 0000.0001) %MON ke_vol                       =   4.6182959764860E+12
(PID.TID 0000.0001) // =======================================================
(PID.TID 0000.0001) // End MONITOR dynamic field statistics
(PID.TID 0000.0001) // =======================================================
(PID.TID 0000.0001) // =======================================================
(PID.TID 0000.0001) // Begin OBCS MONITOR field statistics
(PID.TID 0000.0001) // =======================================================
(PID.TID 0000.0001) %MON obc_N_vVel_max               =  -7.3506400211521E-08
(PID.TID 0000.0001) %MON obc_N_vVel_min               =  -7.3506400211523E-08
(PID.TID 0000.0001) %MON obc_N_vVel_mean              =  -7.3506400211523E-08
(PID.TID 0000.0001) %MON obc_N_vVel_sd                =  -3.0686689213097E-28
(PID.TID 0000.0001) %MON obc_N_vVel_Int               =  -4.8514224139605E+00
(PID.TID 0000.0001) // =======================================================
(PID.TID 0000.0001) // End OBCS MONITOR field statistics
(PID.TID 0000.0001) // =======================================================
 cg2d: Sum(rhs),rhsMax =   3.01071991392016E+00  4.53047299457309E+02
(PID.TID 0000.0001)      cg2d_init_res =   1.80475526146187E-06
(PID.TID 0000.0001)      cg2d_iters(min,last) =      -1      72
(PID.TID 0000.0001)      cg2d_last_res =   9.73887447104646E-12
(PID.TID 0000.0001) // =======================================================
(PID.TID 0000.0001) // Begin MONITOR dynamic field statistics
(PID.TID 0000.0001) // =======================================================
(PID.TID 0000.0001) %MON time_tsnumber                =                   814
(PID.TID 0000.0001) %MON time_secondsf                =   8.1400000000000E+04
(PID.TID 0000.0001) %MON dynstat_eta_max              =   5.7977273861150E+00
(PID.TID 0000.0001) %MON dynstat_eta_min              =  -1.4174481321276E+01
(PID.TID 0000.0001) %MON dynstat_eta_mean             =  -2.5259231970812E+00
(PID.TID 0000.0001) %MON dynstat_eta_sd               =   4.9416176548293E+00
(PID.TID 0000.0001) %MON dynstat_eta_del2             =   1.9058258244774E-01
(PID.TID 0000.0001) %MON dynstat_uvel_max             =   3.5324447445042E-03
(PID.TID 0000.0001) %MON dynstat_uvel_min             =  -1.2908218947040E-02
(PID.TID 0000.0001) %MON dynstat_uvel_mean            =  -1.1391670474154E-09
(PID.TID 0000.0001) %MON dynstat_uvel_sd              =   3.3916427031483E-04
(PID.TID 0000.0001) %MON dynstat_uvel_del2            =   5.6515327681292E-07
(PID.TID 0000.0001) %MON dynstat_vvel_max             =   1.0349609412392E-02
(PID.TID 0000.0001) %MON dynstat_vvel_min             =  -3.6254536492839E-03
(PID.TID 0000.0001) %MON dynstat_vvel_mean            =  -5.8269959695815E-08
(PID.TID 0000.0001) %MON dynstat_vvel_sd              =   1.9492521333537E-04
(PID.TID 0000.0001) %MON dynstat_vvel_del2            =   5.2356632744675E-07
(PID.TID 0000.0001) %MON dynstat_wvel_max             =   5.0870931120296E-04
(PID.TID 0000.0001) %MON dynstat_wvel_min             =  -5.0698257177896E-04
(PID.TID 0000.0001) %MON dynstat_wvel_mean            =   1.9452078109013E-10
(PID.TID 0000.0001) %MON dynstat_wvel_sd              =   1.1074399059267E-05
(PID.TID 0000.0001) %MON dynstat_wvel_del2            =   4.5776329455017E-08
(PID.TID 0000.0001) %MON dynstat_theta_max            =   1.2000000000000E+00
(PID.TID 0000.0001) %MON dynstat_theta_min            =  -1.0000000000000E+00
(PID.TID 0000.0001) %MON dynstat_theta_mean           =   5.6530717440503E-01
(PID.TID 0000.0001) %MON dynstat_theta_sd             =   8.4901385693426E-01
(PID.TID 0000.0001) %MON dynstat_theta_del2           =   1.4638793755685E-06
(PID.TID 0000.0001) %MON dynstat_salt_max             =   3.4700000000000E+01
(PID.TID 0000.0001) %MON dynstat_salt_min             =   3.4000000000000E+01
(PID.TID 0000.0001) %MON dynstat_salt_mean            =   3.4498036667218E+01
(PID.TID 0000.0001) %MON dynstat_salt_sd              =   2.7014041808241E-01
(PID.TID 0000.0001) %MON dynstat_salt_del2            =   5.7549288652124E-07
(PID.TID 0000.0001) %MON advcfl_uvel_max              =   1.2908218947040E-03
(PID.TID 0000.0001) %MON advcfl_vvel_max              =   1.0349609412392E-03
(PID.TID 0000.0001) %MON advcfl_wvel_max              =   2.5435465560148E-03
(PID.TID 0000.0001) %MON advcfl_W_hf_max              =   2.5435465560148E-03
(PID.TID 0000.0001) %MON pe_b_mean                    =  -6.8250691545795E-01
(PID.TID 0000.0001) %MON ke_max                       =   5.1106276348793E-05
(PID.TID 0000.0001) %MON ke_mean                      =   7.5432317746182E-08
(PID.TID 0000.0001) %MON ke_vol                       =   4.6182959963282E+12
(PID.TID 0000.0001) // =======================================================
(PID.TID 0000.0001) // End MONITOR dynamic field statistics
(PID.TID 0000.0001) // =======================================================
(PID.TID 0000.0001) // =======================================================
(PID.TID 0000.0001) // Begin OBCS MONITOR field statistics
(PID.TID 0000.0001) // =======================================================
(PID.TID 0000.0001) %MON obc_N_vVel_max               =  -7.4135210862948E-08
(PID.TID 0000.0001) %MON obc_N_vVel_min               =  -7.4135210862950E-08
(PID.TID 0000.0001) %MON obc_N_vVel_mean              =  -7.4135210862948E-08
(PID.TID 0000.0001) %MON obc_N_vVel_sd                =   1.0204393146541E-14
(PID.TID 0000.0001) %MON obc_N_vVel_Int               =  -4.8929239169546E+00
(PID.TID 0000.0001) // =======================================================
(PID.TID 0000.0001) // End OBCS MONITOR field statistics
(PID.TID 0000.0001) // =======================================================
 cg2d: Sum(rhs),rhsMax =   3.01071596790927E+00  4.53047291759128E+02
(PID.TID 0000.0001)      cg2d_init_res =   1.80463327146691E-06
(PID.TID 0000.0001)      cg2d_iters(min,last) =      -1      72
(PID.TID 0000.0001)      cg2d_last_res =   9.76231005483324E-12
(PID.TID 0000.0001) // =======================================================
(PID.TID 0000.0001) // Begin MONITOR dynamic field statistics
(PID.TID 0000.0001) // =======================================================
(PID.TID 0000.0001) %MON time_tsnumber                =                   815
(PID.TID 0000.0001) %MON time_secondsf                =   8.1500000000000E+04
(PID.TID 0000.0001) %MON dynstat_eta_max              =   5.7977301624706E+00
(PID.TID 0000.0001) %MON dynstat_eta_min              =  -1.4174475703693E+01
(PID.TID 0000.0001) %MON dynstat_eta_mean             =  -2.5259198435505E+00
(PID.TID 0000.0001) %MON dynstat_eta_sd               =   4.9416166368596E+00
(PID.TID 0000.0001) %MON dynstat_eta_del2             =   1.9058258983430E-01
(PID.TID 0000.0001) %MON dynstat_uvel_max             =   3.5376229810353E-03
(PID.TID 0000.0001) %MON dynstat_uvel_min             =  -1.2943137024965E-02
(PID.TID 0000.0001) %MON dynstat_uvel_mean            =  -1.1413445765191E-09
(PID.TID 0000.0001) %MON dynstat_uvel_sd              =   3.4008268707804E-04
(PID.TID 0000.0001) %MON dynstat_uvel_del2            =   5.6643744295555E-07
(PID.TID 0000.0001) %MON dynstat_vvel_max             =   1.0370025966359E-02
(PID.TID 0000.0001) %MON dynstat_vvel_min             =  -3.6347151867888E-03
(PID.TID 0000.0001) %MON dynstat_vvel_mean            =  -5.8850854623161E-08
(PID.TID 0000.0001) %MON dynstat_vvel_sd              =   1.9537575184891E-04
(PID.TID 0000.0001) %MON dynstat_vvel_del2            =   5.2453721162921E-07
(PID.TID 0000.0001) %MON dynstat_wvel_max             =   5.1023813985190E-04
(PID.TID 0000.0001) %MON dynstat_wvel_min             =  -5.0870568655544E-04
(PID.TID 0000.0001) %MON dynstat_wvel_mean            =   1.9515698568554E-10
(PID.TID 0000.0001) %MON dynstat_wvel_sd              =   1.1042152517371E-05
(PID.TID 0000.0001) %MON dynstat_wvel_del2            =   4.5450044178221E-08
(PID.TID 0000.0001) %MON dynstat_theta_max            =   1.2000000000000E+00
(PID.TID 0000.0001) %MON dynstat_theta_min            =  -1.0000000000000E+00
(PID.TID 0000.0001) %MON dynstat_theta_mean           =   5.6530680917458E-01
(PID.TID 0000.0001) %MON dynstat_theta_sd             =   8.4901371614351E-01
(PID.TID 0000.0001) %MON dynstat_theta_del2           =   1.4669861453817E-06
(PID.TID 0000.0001) %MON dynstat_salt_max             =   3.4700000000000E+01
(PID.TID 0000.0001) %MON dynstat_salt_min             =   3.4000000000000E+01
(PID.TID 0000.0001) %MON dynstat_salt_mean            =   3.4498036521812E+01
(PID.TID 0000.0001) %MON dynstat_salt_sd              =   2.7014036684242E-01
(PID.TID 0000.0001) %MON dynstat_salt_del2            =   5.7672919098479E-07
(PID.TID 0000.0001) %MON advcfl_uvel_max              =   1.2943137024965E-03
(PID.TID 0000.0001) %MON advcfl_vvel_max              =   1.0370025966359E-03
(PID.TID 0000.0001) %MON advcfl_wvel_max              =   2.5511906992595E-03
(PID.TID 0000.0001) %MON advcfl_W_hf_max              =   2.5511906992595E-03
(PID.TID 0000.0001) %MON pe_b_mean                    =  -6.8250595735134E-01
(PID.TID 0000.0001) %MON ke_max                       =   5.1382260968656E-05
(PID.TID 0000.0001) %MON ke_mean                      =   7.5826290260712E-08
(PID.TID 0000.0001) %MON ke_vol                       =   4.6182960162093E+12
(PID.TID 0000.0001) // =======================================================
(PID.TID 0000.0001) // End MONITOR dynamic field statistics
(PID.TID 0000.0001) // =======================================================
(PID.TID 0000.0001) // =======================================================
(PID.TID 0000.0001) // Begin OBCS MONITOR field statistics
(PID.TID 0000.0001) // =======================================================
(PID.TID 0000.0001) %MON obc_N_vVel_max               =  -7.4745930813608E-08
(PID.TID 0000.0001) %MON obc_N_vVel_min               =  -7.4745930813609E-08
(PID.TID 0000.0001) %MON obc_N_vVel_mean              =  -7.4745930813609E-08
(PID.TID 0000.0001) %MON obc_N_vVel_sd                =  -3.1948866661451E-28
(PID.TID 0000.0001) %MON obc_N_vVel_Int               =  -4.9332314336982E+00
(PID.TID 0000.0001) // =======================================================
(PID.TID 0000.0001) // End OBCS MONITOR field statistics
(PID.TID 0000.0001) // =======================================================
 cg2d: Sum(rhs),rhsMax =   3.01071201397904E+00  4.53047284079955E+02
(PID.TID 0000.0001)      cg2d_init_res =   1.80393963015285E-06
(PID.TID 0000.0001)      cg2d_iters(min,last) =      -1      72
(PID.TID 0000.0001)      cg2d_last_res =   9.78623952405193E-12
(PID.TID 0000.0001) // =======================================================
(PID.TID 0000.0001) // Begin MONITOR dynamic field statistics
(PID.TID 0000.0001) // =======================================================
(PID.TID 0000.0001) %MON time_tsnumber                =                   816
(PID.TID 0000.0001) %MON time_secondsf                =   8.1600000000000E+04
(PID.TID 0000.0001) %MON dynstat_eta_max              =   5.7977329382051E+00
(PID.TID 0000.0001) %MON dynstat_eta_min              =  -1.4174470066550E+01
(PID.TID 0000.0001) %MON dynstat_eta_mean             =  -2.5259164834817E+00
(PID.TID 0000.0001) %MON dynstat_eta_sd               =   4.9416156171132E+00
(PID.TID 0000.0001) %MON dynstat_eta_del2             =   1.9058259724442E-01
(PID.TID 0000.0001) %MON dynstat_uvel_max             =   3.5428007322125E-03
(PID.TID 0000.0001) %MON dynstat_uvel_min             =  -1.2978125467128E-02
(PID.TID 0000.0001) %MON dynstat_uvel_mean            =  -1.1435925426023E-09
(PID.TID 0000.0001) %MON dynstat_uvel_sd              =   3.4100419353585E-04
(PID.TID 0000.0001) %MON dynstat_uvel_del2            =   5.6772520200501E-07
(PID.TID 0000.0001) %MON dynstat_vvel_max             =   1.0390467100754E-02
(PID.TID 0000.0001) %MON dynstat_vvel_min             =  -3.6439928490735E-03
(PID.TID 0000.0001) %MON dynstat_vvel_mean            =  -5.9409431821869E-08
(PID.TID 0000.0001) %MON dynstat_vvel_sd              =   1.9582687172919E-04
(PID.TID 0000.0001) %MON dynstat_vvel_del2            =   5.2550512232283E-07
(PID.TID 0000.0001) %MON dynstat_wvel_max             =   5.1177026115593E-04
(PID.TID 0000.0001) %MON dynstat_wvel_min             =  -5.1043417948170E-04
(PID.TID 0000.0001) %MON dynstat_wvel_mean            =   1.9580485519948E-10
(PID.TID 0000.0001) %MON dynstat_wvel_sd              =   1.1007032964923E-05
(PID.TID 0000.0001) %MON dynstat_wvel_del2            =   4.5091310867925E-08
(PID.TID 0000.0001) %MON dynstat_theta_max            =   1.2000000000000E+00
(PID.TID 0000.0001) %MON dynstat_theta_min            =  -1.0000000000000E+00
(PID.TID 0000.0001) %MON dynstat_theta_mean           =   5.6530644334320E-01
(PID.TID 0000.0001) %MON dynstat_theta_sd             =   8.4901357498384E-01
(PID.TID 0000.0001) %MON dynstat_theta_del2           =   1.4701062479701E-06
(PID.TID 0000.0001) %MON dynstat_salt_max             =   3.4700000000000E+01
(PID.TID 0000.0001) %MON dynstat_salt_min             =   3.4000000000000E+01
(PID.TID 0000.0001) %MON dynstat_salt_mean            =   3.4498036376160E+01
(PID.TID 0000.0001) %MON dynstat_salt_sd              =   2.7014031545811E-01
(PID.TID 0000.0001) %MON dynstat_salt_del2            =   5.7797009495791E-07
(PID.TID 0000.0001) %MON advcfl_uvel_max              =   1.2978125467128E-03
(PID.TID 0000.0001) %MON advcfl_vvel_max              =   1.0390467100754E-03
(PID.TID 0000.0001) %MON advcfl_wvel_max              =   2.5588513057796E-03
(PID.TID 0000.0001) %MON advcfl_W_hf_max              =   2.5588513057796E-03
(PID.TID 0000.0001) %MON pe_b_mean                    =  -6.8250499730605E-01
(PID.TID 0000.0001) %MON ke_max                       =   5.1659543264201E-05
(PID.TID 0000.0001) %MON ke_mean                      =   7.6222441018387E-08
(PID.TID 0000.0001) %MON ke_vol                       =   4.6182960361293E+12
(PID.TID 0000.0001) // =======================================================
(PID.TID 0000.0001) // End MONITOR dynamic field statistics
(PID.TID 0000.0001) // =======================================================
(PID.TID 0000.0001) // =======================================================
(PID.TID 0000.0001) // Begin OBCS MONITOR field statistics
(PID.TID 0000.0001) // =======================================================
(PID.TID 0000.0001) %MON obc_N_vVel_max               =  -7.5336695894554E-08
(PID.TID 0000.0001) %MON obc_N_vVel_min               =  -7.5336695894555E-08
(PID.TID 0000.0001) %MON obc_N_vVel_mean              =  -7.5336695894554E-08
(PID.TID 0000.0001) %MON obc_N_vVel_sd                =   1.5099033134902E-14
(PID.TID 0000.0001) %MON obc_N_vVel_Int               =  -4.9722219290406E+00
(PID.TID 0000.0001) // =======================================================
(PID.TID 0000.0001) // End OBCS MONITOR field statistics
(PID.TID 0000.0001) // =======================================================
 cg2d: Sum(rhs),rhsMax =   3.01070805213517E+00  4.53047276419555E+02
(PID.TID 0000.0001)      cg2d_init_res =   1.80308270197504E-06
(PID.TID 0000.0001)      cg2d_iters(min,last) =      -1      72
(PID.TID 0000.0001)      cg2d_last_res =   9.81080917594996E-12
(PID.TID 0000.0001) // =======================================================
(PID.TID 0000.0001) // Begin MONITOR dynamic field statistics
(PID.TID 0000.0001) // =======================================================
(PID.TID 0000.0001) %MON time_tsnumber                =                   817
(PID.TID 0000.0001) %MON time_secondsf                =   8.1700000000000E+04
(PID.TID 0000.0001) %MON dynstat_eta_max              =   5.7977357133986E+00
(PID.TID 0000.0001) %MON dynstat_eta_min              =  -1.4174464409786E+01
(PID.TID 0000.0001) %MON dynstat_eta_mean             =  -2.5259131168783E+00
(PID.TID 0000.0001) %MON dynstat_eta_sd               =   4.9416145955953E+00
(PID.TID 0000.0001) %MON dynstat_eta_del2             =   1.9058260467830E-01
(PID.TID 0000.0001) %MON dynstat_uvel_max             =   3.5479779503831E-03
(PID.TID 0000.0001) %MON dynstat_uvel_min             =  -1.3013184289633E-02
(PID.TID 0000.0001) %MON dynstat_uvel_mean            =  -1.1458670678136E-09
(PID.TID 0000.0001) %MON dynstat_uvel_sd              =   3.4192878886262E-04
(PID.TID 0000.0001) %MON dynstat_uvel_del2            =   5.6901654477474E-07
(PID.TID 0000.0001) %MON dynstat_vvel_max             =   1.0410932764590E-02
(PID.TID 0000.0001) %MON dynstat_vvel_min             =  -3.6532866809855E-03
(PID.TID 0000.0001) %MON dynstat_vvel_mean            =  -5.9945158441661E-08
(PID.TID 0000.0001) %MON dynstat_vvel_sd              =   1.9627931654918E-04
(PID.TID 0000.0001) %MON dynstat_vvel_del2            =   5.2647950820053E-07
(PID.TID 0000.0001) %MON dynstat_wvel_max             =   5.1330567990620E-04
(PID.TID 0000.0001) %MON dynstat_wvel_min             =  -5.1216805980148E-04
(PID.TID 0000.0001) %MON dynstat_wvel_mean            =   1.9645811606747E-10
(PID.TID 0000.0001) %MON dynstat_wvel_sd              =   1.0973349355842E-05
(PID.TID 0000.0001) %MON dynstat_wvel_del2            =   4.4738116999832E-08
(PID.TID 0000.0001) %MON dynstat_theta_max            =   1.2000000000000E+00
(PID.TID 0000.0001) %MON dynstat_theta_min            =  -1.0000000000000E+00
(PID.TID 0000.0001) %MON dynstat_theta_mean           =   5.6530607690524E-01
(PID.TID 0000.0001) %MON dynstat_theta_sd             =   8.4901343345374E-01
(PID.TID 0000.0001) %MON dynstat_theta_del2           =   1.4732301435838E-06
(PID.TID 0000.0001) %MON dynstat_salt_max             =   3.4700000000000E+01
(PID.TID 0000.0001) %MON dynstat_salt_min             =   3.4000000000000E+01
(PID.TID 0000.0001) %MON dynstat_salt_mean            =   3.4498036230262E+01
(PID.TID 0000.0001) %MON dynstat_salt_sd              =   2.7014026392912E-01
(PID.TID 0000.0001) %MON dynstat_salt_del2            =   5.7921305706061E-07
(PID.TID 0000.0001) %MON advcfl_uvel_max              =   1.3013184289633E-03
(PID.TID 0000.0001) %MON advcfl_vvel_max              =   1.0410932764590E-03
(PID.TID 0000.0001) %MON advcfl_wvel_max              =   2.5665283995310E-03
(PID.TID 0000.0001) %MON advcfl_W_hf_max              =   2.5665283995310E-03
(PID.TID 0000.0001) %MON pe_b_mean                    =  -6.8250403532121E-01
(PID.TID 0000.0001) %MON ke_max                       =   5.1938127708745E-05
(PID.TID 0000.0001) %MON ke_mean                      =   7.6620924852758E-08
(PID.TID 0000.0001) %MON ke_vol                       =   4.6182960560881E+12
(PID.TID 0000.0001) // =======================================================
(PID.TID 0000.0001) // End MONITOR dynamic field statistics
(PID.TID 0000.0001) // =======================================================
(PID.TID 0000.0001) // =======================================================
(PID.TID 0000.0001) // Begin OBCS MONITOR field statistics
(PID.TID 0000.0001) // =======================================================
(PID.TID 0000.0001) %MON obc_N_vVel_max               =  -7.5906384700950E-08
(PID.TID 0000.0001) %MON obc_N_vVel_min               =  -7.5906384700951E-08
(PID.TID 0000.0001) %MON obc_N_vVel_mean              =  -7.5906384700950E-08
(PID.TID 0000.0001) %MON obc_N_vVel_sd                =   1.6898746926622E-14
(PID.TID 0000.0001) %MON obc_N_vVel_Int               =  -5.0098213902627E+00
(PID.TID 0000.0001) // =======================================================
(PID.TID 0000.0001) // End OBCS MONITOR field statistics
(PID.TID 0000.0001) // =======================================================
 cg2d: Sum(rhs),rhsMax =   3.01070408238005E+00  4.53047268777711E+02
(PID.TID 0000.0001)      cg2d_init_res =   1.80245673368108E-06
(PID.TID 0000.0001)      cg2d_iters(min,last) =      -1      72
(PID.TID 0000.0001)      cg2d_last_res =   9.83586187207501E-12
(PID.TID 0000.0001) // =======================================================
(PID.TID 0000.0001) // Begin MONITOR dynamic field statistics
(PID.TID 0000.0001) // =======================================================
(PID.TID 0000.0001) %MON time_tsnumber                =                   818
(PID.TID 0000.0001) %MON time_secondsf                =   8.1800000000000E+04
(PID.TID 0000.0001) %MON dynstat_eta_max              =   5.7977384881371E+00
(PID.TID 0000.0001) %MON dynstat_eta_min              =  -1.4174458733339E+01
(PID.TID 0000.0001) %MON dynstat_eta_mean             =  -2.5259097437411E+00
(PID.TID 0000.0001) %MON dynstat_eta_sd               =   4.9416135723066E+00
(PID.TID 0000.0001) %MON dynstat_eta_del2             =   1.9058261213597E-01
(PID.TID 0000.0001) %MON dynstat_uvel_max             =   3.5531545878342E-03
(PID.TID 0000.0001) %MON dynstat_uvel_min             =  -1.3048313507533E-02
(PID.TID 0000.0001) %MON dynstat_uvel_mean            =  -1.1481186326180E-09
(PID.TID 0000.0001) %MON dynstat_uvel_sd              =   3.4285647236272E-04
(PID.TID 0000.0001) %MON dynstat_uvel_del2            =   5.7031146404867E-07
(PID.TID 0000.0001) %MON dynstat_vvel_max             =   1.0431422906173E-02
(PID.TID 0000.0001) %MON dynstat_vvel_min             =  -3.6625967275397E-03
(PID.TID 0000.0001) %MON dynstat_vvel_mean            =  -6.0458224156729E-08
(PID.TID 0000.0001) %MON dynstat_vvel_sd              =   1.9673379392340E-04
(PID.TID 0000.0001) %MON dynstat_vvel_del2            =   5.2746927650399E-07
(PID.TID 0000.0001) %MON dynstat_wvel_max             =   5.1484440088412E-04
(PID.TID 0000.0001) %MON dynstat_wvel_min             =  -5.1390733681932E-04
(PID.TID 0000.0001) %MON dynstat_wvel_mean            =   1.9711089560356E-10
(PID.TID 0000.0001) %MON dynstat_wvel_sd              =   1.0945257875684E-05
(PID.TID 0000.0001) %MON dynstat_wvel_del2            =   4.4428314975810E-08
(PID.TID 0000.0001) %MON dynstat_theta_max            =   1.2000000000000E+00
(PID.TID 0000.0001) %MON dynstat_theta_min            =  -1.0000000000000E+00
(PID.TID 0000.0001) %MON dynstat_theta_mean           =   5.6530570985370E-01
(PID.TID 0000.0001) %MON dynstat_theta_sd             =   8.4901329155362E-01
(PID.TID 0000.0001) %MON dynstat_theta_del2           =   1.4763487250330E-06
(PID.TID 0000.0001) %MON dynstat_salt_max             =   3.4700000000000E+01
(PID.TID 0000.0001) %MON dynstat_salt_min             =   3.4000000000000E+01
(PID.TID 0000.0001) %MON dynstat_salt_mean            =   3.4498036084115E+01
(PID.TID 0000.0001) %MON dynstat_salt_sd              =   2.7014021225534E-01
(PID.TID 0000.0001) %MON dynstat_salt_del2            =   5.8045575346704E-07
(PID.TID 0000.0001) %MON advcfl_uvel_max              =   1.3048313507533E-03
(PID.TID 0000.0001) %MON advcfl_vvel_max              =   1.0431422906173E-03
(PID.TID 0000.0001) %MON advcfl_wvel_max              =   2.5742220044206E-03
(PID.TID 0000.0001) %MON advcfl_W_hf_max              =   2.5742220044206E-03
(PID.TID 0000.0001) %MON pe_b_mean                    =  -6.8250307139504E-01
(PID.TID 0000.0001) %MON ke_max                       =   5.2218018776291E-05
(PID.TID 0000.0001) %MON ke_mean                      =   7.7021890941758E-08
(PID.TID 0000.0001) %MON ke_vol                       =   4.6182960760857E+12
(PID.TID 0000.0001) // =======================================================
(PID.TID 0000.0001) // End MONITOR dynamic field statistics
(PID.TID 0000.0001) // =======================================================
(PID.TID 0000.0001) // =======================================================
(PID.TID 0000.0001) // Begin OBCS MONITOR field statistics
(PID.TID 0000.0001) // =======================================================
(PID.TID 0000.0001) %MON obc_N_vVel_max               =  -7.6454567302055E-08
(PID.TID 0000.0001) %MON obc_N_vVel_min               =  -7.6454567302057E-08
(PID.TID 0000.0001) %MON obc_N_vVel_mean              =  -7.6454567302055E-08
(PID.TID 0000.0001) %MON obc_N_vVel_sd                =   2.1518860363986E-14
(PID.TID 0000.0001) %MON obc_N_vVel_Int               =  -5.0460014419356E+00
(PID.TID 0000.0001) // =======================================================
(PID.TID 0000.0001) // End OBCS MONITOR field statistics
(PID.TID 0000.0001) // =======================================================
 cg2d: Sum(rhs),rhsMax =   3.01070010471712E+00  4.53047261154237E+02
(PID.TID 0000.0001)      cg2d_init_res =   1.80245156050670E-06
(PID.TID 0000.0001)      cg2d_iters(min,last) =      -1      72
(PID.TID 0000.0001)      cg2d_last_res =   9.86117360761357E-12
(PID.TID 0000.0001) // =======================================================
(PID.TID 0000.0001) // Begin MONITOR dynamic field statistics
(PID.TID 0000.0001) // =======================================================
(PID.TID 0000.0001) %MON time_tsnumber                =                   819
(PID.TID 0000.0001) %MON time_secondsf                =   8.1900000000000E+04
(PID.TID 0000.0001) %MON dynstat_eta_max              =   5.7977412625043E+00
(PID.TID 0000.0001) %MON dynstat_eta_min              =  -1.4174453037143E+01
(PID.TID 0000.0001) %MON dynstat_eta_mean             =  -2.5259063640720E+00
(PID.TID 0000.0001) %MON dynstat_eta_sd               =   4.9416125472493E+00
(PID.TID 0000.0001) %MON dynstat_eta_del2             =   1.9058261961751E-01
(PID.TID 0000.0001) %MON dynstat_uvel_max             =   3.5583305969169E-03
(PID.TID 0000.0001) %MON dynstat_uvel_min             =  -1.3083513135111E-02
(PID.TID 0000.0001) %MON dynstat_uvel_mean            =  -1.1503000463699E-09
(PID.TID 0000.0001) %MON dynstat_uvel_sd              =   3.4378724353888E-04
(PID.TID 0000.0001) %MON dynstat_uvel_del2            =   5.7160995543911E-07
(PID.TID 0000.0001) %MON dynstat_vvel_max             =   1.0451937473112E-02
(PID.TID 0000.0001) %MON dynstat_vvel_min             =  -3.6719230337940E-03
(PID.TID 0000.0001) %MON dynstat_vvel_mean            =  -6.0949444378607E-08
(PID.TID 0000.0001) %MON dynstat_vvel_sd              =   1.9719091056786E-04
(PID.TID 0000.0001) %MON dynstat_vvel_del2            =   5.2848197280774E-07
(PID.TID 0000.0001) %MON dynstat_wvel_max             =   5.1638642884624E-04
(PID.TID 0000.0001) %MON dynstat_wvel_min             =  -5.1565201992403E-04
(PID.TID 0000.0001) %MON dynstat_wvel_mean            =   1.9775776987171E-10
(PID.TID 0000.0001) %MON dynstat_wvel_sd              =   1.0926362801219E-05
(PID.TID 0000.0001) %MON dynstat_wvel_del2            =   4.4195869024572E-08
(PID.TID 0000.0001) %MON dynstat_theta_max            =   1.2000000000000E+00
(PID.TID 0000.0001) %MON dynstat_theta_min            =  -1.0000000000000E+00
(PID.TID 0000.0001) %MON dynstat_theta_mean           =   5.6530534218082E-01
(PID.TID 0000.0001) %MON dynstat_theta_sd             =   8.4901314928893E-01
(PID.TID 0000.0001) %MON dynstat_theta_del2           =   1.4794546122062E-06
(PID.TID 0000.0001) %MON dynstat_salt_max             =   3.4700000000000E+01
(PID.TID 0000.0001) %MON dynstat_salt_min             =   3.4000000000000E+01
(PID.TID 0000.0001) %MON dynstat_salt_mean            =   3.4498035937716E+01
(PID.TID 0000.0001) %MON dynstat_salt_sd              =   2.7014016043850E-01
(PID.TID 0000.0001) %MON dynstat_salt_del2            =   5.8169616924353E-07
(PID.TID 0000.0001) %MON advcfl_uvel_max              =   1.3083513135111E-03
(PID.TID 0000.0001) %MON advcfl_vvel_max              =   1.0451937473112E-03
(PID.TID 0000.0001) %MON advcfl_wvel_max              =   2.5819321442312E-03
(PID.TID 0000.0001) %MON advcfl_W_hf_max              =   2.5819321442312E-03
(PID.TID 0000.0001) %MON pe_b_mean                    =  -6.8250210552585E-01
(PID.TID 0000.0001) %MON ke_max                       =   5.2499220943903E-05
(PID.TID 0000.0001) %MON ke_mean                      =   7.7425469956489E-08
(PID.TID 0000.0001) %MON ke_vol                       =   4.6182960961222E+12
(PID.TID 0000.0001) // =======================================================
(PID.TID 0000.0001) // End MONITOR dynamic field statistics
(PID.TID 0000.0001) // =======================================================
(PID.TID 0000.0001) // =======================================================
(PID.TID 0000.0001) // Begin OBCS MONITOR field statistics
(PID.TID 0000.0001) // =======================================================
(PID.TID 0000.0001) %MON obc_N_vVel_max               =  -7.6981446220809E-08
(PID.TID 0000.0001) %MON obc_N_vVel_min               =  -7.6981446220812E-08
(PID.TID 0000.0001) %MON obc_N_vVel_mean              =  -7.6981446220812E-08
(PID.TID 0000.0001) %MON obc_N_vVel_sd                =  -2.4296915880807E-28
(PID.TID 0000.0001) %MON obc_N_vVel_Int               =  -5.0807754505736E+00
(PID.TID 0000.0001) // =======================================================
(PID.TID 0000.0001) // End OBCS MONITOR field statistics
(PID.TID 0000.0001) // =======================================================
 cg2d: Sum(rhs),rhsMax =   3.01069611915116E+00  4.53047253548979E+02
(PID.TID 0000.0001)      cg2d_init_res =   1.80337208209249E-06
(PID.TID 0000.0001)      cg2d_iters(min,last) =      -1      72
(PID.TID 0000.0001)      cg2d_last_res =   9.88626395497543E-12
(PID.TID 0000.0001) // =======================================================
(PID.TID 0000.0001) // Begin MONITOR dynamic field statistics
(PID.TID 0000.0001) // =======================================================
(PID.TID 0000.0001) %MON time_tsnumber                =                   820
(PID.TID 0000.0001) %MON time_secondsf                =   8.2000000000000E+04
(PID.TID 0000.0001) %MON dynstat_eta_max              =   5.7977440366061E+00
(PID.TID 0000.0001) %MON dynstat_eta_min              =  -1.4174447321121E+01
(PID.TID 0000.0001) %MON dynstat_eta_mean             =  -2.5259029778741E+00
(PID.TID 0000.0001) %MON dynstat_eta_sd               =   4.9416115204260E+00
(PID.TID 0000.0001) %MON dynstat_eta_del2             =   1.9058262712294E-01
(PID.TID 0000.0001) %MON dynstat_uvel_max             =   3.5635059299501E-03
(PID.TID 0000.0001) %MON dynstat_uvel_min             =  -1.3118783185946E-02
(PID.TID 0000.0001) %MON dynstat_uvel_mean            =  -1.1523779313639E-09
(PID.TID 0000.0001) %MON dynstat_uvel_sd              =   3.4472110216956E-04
(PID.TID 0000.0001) %MON dynstat_uvel_del2            =   5.7291201719413E-07
(PID.TID 0000.0001) %MON dynstat_vvel_max             =   1.0472476412283E-02
(PID.TID 0000.0001) %MON dynstat_vvel_min             =  -3.6812656448566E-03
(PID.TID 0000.0001) %MON dynstat_vvel_mean            =  -6.1420138263833E-08
(PID.TID 0000.0001) %MON dynstat_vvel_sd              =   1.9765111822470E-04
(PID.TID 0000.0001) %MON dynstat_vvel_del2            =   5.2952310298013E-07
(PID.TID 0000.0001) %MON dynstat_wvel_max             =   5.1793176852894E-04
(PID.TID 0000.0001) %MON dynstat_wvel_min             =  -5.1740211852955E-04
(PID.TID 0000.0001) %MON dynstat_wvel_mean            =   1.9839424298116E-10
(PID.TID 0000.0001) %MON dynstat_wvel_sd              =   1.0919363074215E-05
(PID.TID 0000.0001) %MON dynstat_wvel_del2            =   4.4067224996637E-08
(PID.TID 0000.0001) %MON dynstat_theta_max            =   1.2000000000000E+00
(PID.TID 0000.0001) %MON dynstat_theta_min            =  -1.0000000000000E+00
(PID.TID 0000.0001) %MON dynstat_theta_mean           =   5.6530497387834E-01
(PID.TID 0000.0001) %MON dynstat_theta_sd             =   8.4901300666466E-01
(PID.TID 0000.0001) %MON dynstat_theta_del2           =   1.4825428228382E-06
(PID.TID 0000.0001) %MON dynstat_salt_max             =   3.4700000000000E+01
(PID.TID 0000.0001) %MON dynstat_salt_min             =   3.4000000000000E+01
(PID.TID 0000.0001) %MON dynstat_salt_mean            =   3.4498035791062E+01
(PID.TID 0000.0001) %MON dynstat_salt_sd              =   2.7014010848020E-01
(PID.TID 0000.0001) %MON dynstat_salt_del2            =   5.8293313063718E-07
(PID.TID 0000.0001) %MON advcfl_uvel_max              =   1.3118783185946E-03
(PID.TID 0000.0001) %MON advcfl_vvel_max              =   1.0472476412283E-03
(PID.TID 0000.0001) %MON advcfl_wvel_max              =   2.5896588426447E-03
(PID.TID 0000.0001) %MON advcfl_W_hf_max              =   2.5896588426447E-03
(PID.TID 0000.0001) %MON pe_b_mean                    =  -6.8250113771235E-01
(PID.TID 0000.0001) %MON ke_max                       =   5.2781738692146E-05
(PID.TID 0000.0001) %MON ke_mean                      =   7.7831763185212E-08
(PID.TID 0000.0001) %MON ke_vol                       =   4.6182961161974E+12
(PID.TID 0000.0001) // =======================================================
(PID.TID 0000.0001) // End MONITOR dynamic field statistics
(PID.TID 0000.0001) // =======================================================
(PID.TID 0000.0001) // =======================================================
(PID.TID 0000.0001) // Begin OBCS MONITOR field statistics
(PID.TID 0000.0001) // =======================================================
(PID.TID 0000.0001) %MON obc_N_vVel_max               =  -7.7487752887711E-08
(PID.TID 0000.0001) %MON obc_N_vVel_min               =  -7.7487752887711E-08
(PID.TID 0000.0001) %MON obc_N_vVel_mean              =  -7.7487752887711E-08
(PID.TID 0000.0001) %MON obc_N_vVel_sd                =  -8.1252673237764E-29
(PID.TID 0000.0001) %MON obc_N_vVel_Int               =  -5.1141916905889E+00
(PID.TID 0000.0001) // =======================================================
(PID.TID 0000.0001) // End OBCS MONITOR field statistics
(PID.TID 0000.0001) // =======================================================
 cg2d: Sum(rhs),rhsMax =   3.01069212568512E+00  4.53047245961888E+02
(PID.TID 0000.0001)      cg2d_init_res =   1.80548288304920E-06
(PID.TID 0000.0001)      cg2d_iters(min,last) =      -1      72
(PID.TID 0000.0001)      cg2d_last_res =   9.91183911242211E-12
(PID.TID 0000.0001) // =======================================================
(PID.TID 0000.0001) // Begin MONITOR dynamic field statistics
(PID.TID 0000.0001) // =======================================================
(PID.TID 0000.0001) %MON time_tsnumber                =                   821
(PID.TID 0000.0001) %MON time_secondsf                =   8.2100000000000E+04
(PID.TID 0000.0001) %MON dynstat_eta_max              =   5.7977468105431E+00
(PID.TID 0000.0001) %MON dynstat_eta_min              =  -1.4174441585208E+01
(PID.TID 0000.0001) %MON dynstat_eta_mean             =  -2.5258995851496E+00
(PID.TID 0000.0001) %MON dynstat_eta_sd               =   4.9416104918402E+00
(PID.TID 0000.0001) %MON dynstat_eta_del2             =   1.9058263465251E-01
(PID.TID 0000.0001) %MON dynstat_uvel_max             =   3.5686805393134E-03
(PID.TID 0000.0001) %MON dynstat_uvel_min             =  -1.3154123672471E-02
(PID.TID 0000.0001) %MON dynstat_uvel_mean            =  -1.1543245874889E-09
(PID.TID 0000.0001) %MON dynstat_uvel_sd              =   3.4565804831821E-04
(PID.TID 0000.0001) %MON dynstat_uvel_del2            =   5.7421765250907E-07
(PID.TID 0000.0001) %MON dynstat_vvel_max             =   1.0493039669999E-02
(PID.TID 0000.0001) %MON dynstat_vvel_min             =  -3.6906246060768E-03
(PID.TID 0000.0001) %MON dynstat_vvel_mean            =  -6.1872011551147E-08
(PID.TID 0000.0001) %MON dynstat_vvel_sd              =   1.9811467520276E-04
(PID.TID 0000.0001) %MON dynstat_vvel_del2            =   5.3059565668892E-07
(PID.TID 0000.0001) %MON dynstat_wvel_max             =   5.1948042465011E-04
(PID.TID 0000.0001) %MON dynstat_wvel_min             =  -5.1915764216703E-04
(PID.TID 0000.0001) %MON dynstat_wvel_mean            =   1.9901623801954E-10
(PID.TID 0000.0001) %MON dynstat_wvel_sd              =   1.0925787149178E-05
(PID.TID 0000.0001) %MON dynstat_wvel_del2            =   4.4058332859317E-08
(PID.TID 0000.0001) %MON dynstat_theta_max            =   1.2000000000000E+00
(PID.TID 0000.0001) %MON dynstat_theta_min            =  -1.0000000000000E+00
(PID.TID 0000.0001) %MON dynstat_theta_mean           =   5.6530460493740E-01
(PID.TID 0000.0001) %MON dynstat_theta_sd             =   8.4901286368076E-01
(PID.TID 0000.0001) %MON dynstat_theta_del2           =   1.4856112500399E-06
(PID.TID 0000.0001) %MON dynstat_salt_max             =   3.4700000000000E+01
(PID.TID 0000.0001) %MON dynstat_salt_min             =   3.4000000000000E+01
(PID.TID 0000.0001) %MON dynstat_salt_mean            =   3.4498035644150E+01
(PID.TID 0000.0001) %MON dynstat_salt_sd              =   2.7014005638041E-01
(PID.TID 0000.0001) %MON dynstat_salt_del2            =   5.8416610258468E-07
(PID.TID 0000.0001) %MON advcfl_uvel_max              =   1.3154123672471E-03
(PID.TID 0000.0001) %MON advcfl_vvel_max              =   1.0493039669999E-03
(PID.TID 0000.0001) %MON advcfl_wvel_max              =   2.5974021232505E-03
(PID.TID 0000.0001) %MON advcfl_W_hf_max              =   2.5974021232505E-03
(PID.TID 0000.0001) %MON pe_b_mean                    =  -6.8250016795279E-01
(PID.TID 0000.0001) %MON ke_max                       =   5.3065576501154E-05
(PID.TID 0000.0001) %MON ke_mean                      =   7.8240834577083E-08
(PID.TID 0000.0001) %MON ke_vol                       =   4.6182961363114E+12
(PID.TID 0000.0001) // =======================================================
(PID.TID 0000.0001) // End MONITOR dynamic field statistics
(PID.TID 0000.0001) // =======================================================
(PID.TID 0000.0001) // =======================================================
(PID.TID 0000.0001) // Begin OBCS MONITOR field statistics
(PID.TID 0000.0001) // =======================================================
(PID.TID 0000.0001) %MON obc_N_vVel_max               =  -7.7974627961795E-08
(PID.TID 0000.0001) %MON obc_N_vVel_min               =  -7.7974627961796E-08
(PID.TID 0000.0001) %MON obc_N_vVel_mean              =  -7.7974627961796E-08
(PID.TID 0000.0001) %MON obc_N_vVel_sd                =  -2.3034738432454E-28
(PID.TID 0000.0001) %MON obc_N_vVel_Int               =  -5.1463254454785E+00
(PID.TID 0000.0001) // =======================================================
(PID.TID 0000.0001) // End OBCS MONITOR field statistics
(PID.TID 0000.0001) // =======================================================
 cg2d: Sum(rhs),rhsMax =   3.01068812426994E+00  4.53047238400540E+02
(PID.TID 0000.0001)      cg2d_init_res =   1.80886945586664E-06
(PID.TID 0000.0001)      cg2d_iters(min,last) =      -1      72
(PID.TID 0000.0001)      cg2d_last_res =   9.93757995310833E-12
(PID.TID 0000.0001) // =======================================================
(PID.TID 0000.0001) // Begin MONITOR dynamic field statistics
(PID.TID 0000.0001) // =======================================================
(PID.TID 0000.0001) %MON time_tsnumber                =                   822
(PID.TID 0000.0001) %MON time_secondsf                =   8.2200000000000E+04
(PID.TID 0000.0001) %MON dynstat_eta_max              =   5.7977495844294E+00
(PID.TID 0000.0001) %MON dynstat_eta_min              =  -1.4174435829318E+01
(PID.TID 0000.0001) %MON dynstat_eta_mean             =  -2.5258961858996E+00
(PID.TID 0000.0001) %MON dynstat_eta_sd               =   4.9416094614922E+00
(PID.TID 0000.0001) %MON dynstat_eta_del2             =   1.9058264220631E-01
(PID.TID 0000.0001) %MON dynstat_uvel_max             =   3.5738543772794E-03
(PID.TID 0000.0001) %MON dynstat_uvel_min             =  -1.3189534606518E-02
(PID.TID 0000.0001) %MON dynstat_uvel_mean            =  -1.1561262367849E-09
(PID.TID 0000.0001) %MON dynstat_uvel_sd              =   3.4659808237583E-04
(PID.TID 0000.0001) %MON dynstat_uvel_del2            =   5.7552686880579E-07
(PID.TID 0000.0001) %MON dynstat_vvel_max             =   1.0513627191824E-02
(PID.TID 0000.0001) %MON dynstat_vvel_min             =  -3.6999999627811E-03
(PID.TID 0000.0001) %MON dynstat_vvel_mean            =  -6.2307005243506E-08
(PID.TID 0000.0001) %MON dynstat_vvel_sd              =   1.9858162681522E-04
(PID.TID 0000.0001) %MON dynstat_vvel_del2            =   5.3169987855734E-07
(PID.TID 0000.0001) %MON dynstat_wvel_max             =   5.2103240190930E-04
(PID.TID 0000.0001) %MON dynstat_wvel_min             =  -5.2091860040742E-04
(PID.TID 0000.0001) %MON dynstat_wvel_mean            =   1.9962083057351E-10
(PID.TID 0000.0001) %MON dynstat_wvel_sd              =   1.0945850788821E-05
(PID.TID 0000.0001) %MON dynstat_wvel_del2            =   4.4172843193610E-08
(PID.TID 0000.0001) %MON dynstat_theta_max            =   1.2000000000000E+00
(PID.TID 0000.0001) %MON dynstat_theta_min            =  -1.0000000000000E+00
(PID.TID 0000.0001) %MON dynstat_theta_mean           =   5.6530423534877E-01
(PID.TID 0000.0001) %MON dynstat_theta_sd             =   8.4901272033638E-01
(PID.TID 0000.0001) %MON dynstat_theta_del2           =   1.4886608496927E-06
(PID.TID 0000.0001) %MON dynstat_salt_max             =   3.4700000000000E+01
(PID.TID 0000.0001) %MON dynstat_salt_min             =   3.4000000000000E+01
(PID.TID 0000.0001) %MON dynstat_salt_mean            =   3.4498035496978E+01
(PID.TID 0000.0001) %MON dynstat_salt_sd              =   2.7014000413868E-01
(PID.TID 0000.0001) %MON dynstat_salt_del2            =   5.8539532721891E-07
(PID.TID 0000.0001) %MON advcfl_uvel_max              =   1.3189534606518E-03
(PID.TID 0000.0001) %MON advcfl_vvel_max              =   1.0513627191824E-03
(PID.TID 0000.0001) %MON advcfl_wvel_max              =   2.6051620095465E-03
(PID.TID 0000.0001) %MON advcfl_W_hf_max              =   2.6051620095465E-03
(PID.TID 0000.0001) %MON pe_b_mean                    =  -6.8249919624505E-01
(PID.TID 0000.0001) %MON ke_max                       =   5.3350738855268E-05
(PID.TID 0000.0001) %MON ke_mean                      =   7.8652706436302E-08
(PID.TID 0000.0001) %MON ke_vol                       =   4.6182961564642E+12
(PID.TID 0000.0001) // =======================================================
(PID.TID 0000.0001) // End MONITOR dynamic field statistics
(PID.TID 0000.0001) // =======================================================
(PID.TID 0000.0001) // =======================================================
(PID.TID 0000.0001) // Begin OBCS MONITOR field statistics
(PID.TID 0000.0001) // =======================================================
(PID.TID 0000.0001) %MON obc_N_vVel_max               =  -7.8443466921162E-08
(PID.TID 0000.0001) %MON obc_N_vVel_min               =  -7.8443466921163E-08
(PID.TID 0000.0001) %MON obc_N_vVel_mean              =  -7.8443466921163E-08
(PID.TID 0000.0001) %MON obc_N_vVel_sd                =  -3.4946538101291E-28
(PID.TID 0000.0001) %MON obc_N_vVel_Int               =  -5.1772688167968E+00
(PID.TID 0000.0001) // =======================================================
(PID.TID 0000.0001) // End OBCS MONITOR field statistics
(PID.TID 0000.0001) // =======================================================
 cg2d: Sum(rhs),rhsMax =   3.01068411495531E+00  4.53047230857448E+02
(PID.TID 0000.0001)      cg2d_init_res =   1.81352619356625E-06
(PID.TID 0000.0001)      cg2d_iters(min,last) =      -1      72
(PID.TID 0000.0001)      cg2d_last_res =   9.96370263754162E-12
(PID.TID 0000.0001) // =======================================================
(PID.TID 0000.0001) // Begin MONITOR dynamic field statistics
(PID.TID 0000.0001) // =======================================================
(PID.TID 0000.0001) %MON time_tsnumber                =                   823
(PID.TID 0000.0001) %MON time_secondsf                =   8.2300000000000E+04
(PID.TID 0000.0001) %MON dynstat_eta_max              =   5.7977523583846E+00
(PID.TID 0000.0001) %MON dynstat_eta_min              =  -1.4174430053377E+01
(PID.TID 0000.0001) %MON dynstat_eta_mean             =  -2.5258927801241E+00
(PID.TID 0000.0001) %MON dynstat_eta_sd               =   4.9416084293835E+00
(PID.TID 0000.0001) %MON dynstat_eta_del2             =   1.9058264978450E-01
(PID.TID 0000.0001) %MON dynstat_uvel_max             =   3.5790273963165E-03
(PID.TID 0000.0001) %MON dynstat_uvel_min             =  -1.3225015999139E-02
(PID.TID 0000.0001) %MON dynstat_uvel_mean            =  -1.1577763642833E-09
(PID.TID 0000.0001) %MON dynstat_uvel_sd              =   3.4754120506400E-04
(PID.TID 0000.0001) %MON dynstat_uvel_del2            =   5.7683967752329E-07
(PID.TID 0000.0001) %MON dynstat_vvel_max             =   1.0534238922918E-02
(PID.TID 0000.0001) %MON dynstat_vvel_min             =  -3.7093917602569E-03
(PID.TID 0000.0001) %MON dynstat_vvel_mean            =  -6.2727119296827E-08
(PID.TID 0000.0001) %MON dynstat_vvel_sd              =   1.9905180608962E-04
(PID.TID 0000.0001) %MON dynstat_vvel_del2            =   5.3283330150675E-07
(PID.TID 0000.0001) %MON dynstat_wvel_max             =   5.2258770499520E-04
(PID.TID 0000.0001) %MON dynstat_wvel_min             =  -5.2268500288057E-04
(PID.TID 0000.0001) %MON dynstat_wvel_mean            =   2.0020578756697E-10
(PID.TID 0000.0001) %MON dynstat_wvel_sd              =   1.0978456794536E-05
(PID.TID 0000.0001) %MON dynstat_wvel_del2            =   4.4401827500080E-08
(PID.TID 0000.0001) %MON dynstat_theta_max            =   1.2000000000000E+00
(PID.TID 0000.0001) %MON dynstat_theta_min            =  -1.0000000000000E+00
(PID.TID 0000.0001) %MON dynstat_theta_mean           =   5.6530386510301E-01
(PID.TID 0000.0001) %MON dynstat_theta_sd             =   8.4901257662823E-01
(PID.TID 0000.0001) %MON dynstat_theta_del2           =   1.4916953910046E-06
(PID.TID 0000.0001) %MON dynstat_salt_max             =   3.4700000000000E+01
(PID.TID 0000.0001) %MON dynstat_salt_min             =   3.4000000000000E+01
(PID.TID 0000.0001) %MON dynstat_salt_mean            =   3.4498035349541E+01
(PID.TID 0000.0001) %MON dynstat_salt_sd              =   2.7013995175394E-01
(PID.TID 0000.0001) %MON dynstat_salt_del2            =   5.8662178033824E-07
(PID.TID 0000.0001) %MON advcfl_uvel_max              =   1.3225015999139E-03
(PID.TID 0000.0001) %MON advcfl_vvel_max              =   1.0534238922918E-03
(PID.TID 0000.0001) %MON advcfl_wvel_max              =   2.6134250144028E-03
(PID.TID 0000.0001) %MON advcfl_W_hf_max              =   2.6134250144028E-03
(PID.TID 0000.0001) %MON pe_b_mean                    =  -6.8249822258684E-01
(PID.TID 0000.0001) %MON ke_max                       =   5.3637230241590E-05
(PID.TID 0000.0001) %MON ke_mean                      =   7.9067359073624E-08
(PID.TID 0000.0001) %MON ke_vol                       =   4.6182961766558E+12
(PID.TID 0000.0001) // =======================================================
(PID.TID 0000.0001) // End MONITOR dynamic field statistics
(PID.TID 0000.0001) // =======================================================
(PID.TID 0000.0001) // =======================================================
(PID.TID 0000.0001) // Begin OBCS MONITOR field statistics
(PID.TID 0000.0001) // =======================================================
(PID.TID 0000.0001) %MON obc_N_vVel_max               =  -7.8895778209230E-08
(PID.TID 0000.0001) %MON obc_N_vVel_min               =  -7.8895778209231E-08
(PID.TID 0000.0001) %MON obc_N_vVel_mean              =  -7.8895778209231E-08
(PID.TID 0000.0001) %MON obc_N_vVel_sd                =  -3.6760918183299E-28
(PID.TID 0000.0001) %MON obc_N_vVel_Int               =  -5.2071213618093E+00
(PID.TID 0000.0001) // =======================================================
(PID.TID 0000.0001) // End OBCS MONITOR field statistics
(PID.TID 0000.0001) // =======================================================
 cg2d: Sum(rhs),rhsMax =   3.01068009773062E+00  4.53047223333140E+02
(PID.TID 0000.0001)      cg2d_init_res =   1.81931146249857E-06
(PID.TID 0000.0001)      cg2d_iters(min,last) =      -1      72
(PID.TID 0000.0001)      cg2d_last_res =   9.99039446527627E-12
(PID.TID 0000.0001) // =======================================================
(PID.TID 0000.0001) // Begin MONITOR dynamic field statistics
(PID.TID 0000.0001) // =======================================================
(PID.TID 0000.0001) %MON time_tsnumber                =                   824
(PID.TID 0000.0001) %MON time_secondsf                =   8.2400000000000E+04
(PID.TID 0000.0001) %MON dynstat_eta_max              =   5.7977551325212E+00
(PID.TID 0000.0001) %MON dynstat_eta_min              =  -1.4174424257293E+01
(PID.TID 0000.0001) %MON dynstat_eta_mean             =  -2.5258893678170E+00
(PID.TID 0000.0001) %MON dynstat_eta_sd               =   4.9416073955136E+00
(PID.TID 0000.0001) %MON dynstat_eta_del2             =   1.9058265738718E-01
(PID.TID 0000.0001) %MON dynstat_uvel_max             =   3.5841995488024E-03
(PID.TID 0000.0001) %MON dynstat_uvel_min             =  -1.3260567860683E-02
(PID.TID 0000.0001) %MON dynstat_uvel_mean            =  -1.1592772976271E-09
(PID.TID 0000.0001) %MON dynstat_uvel_sd              =   3.4848741742225E-04
(PID.TID 0000.0001) %MON dynstat_uvel_del2            =   5.7815609377710E-07
(PID.TID 0000.0001) %MON dynstat_vvel_max             =   1.0554874807827E-02
(PID.TID 0000.0001) %MON dynstat_vvel_min             =  -3.7188000438562E-03
(PID.TID 0000.0001) %MON dynstat_vvel_mean            =  -6.3134241189149E-08
(PID.TID 0000.0001) %MON dynstat_vvel_sd              =   1.9952485419596E-04
(PID.TID 0000.0001) %MON dynstat_vvel_del2            =   5.3399103509611E-07
(PID.TID 0000.0001) %MON dynstat_wvel_max             =   5.2414633856429E-04
(PID.TID 0000.0001) %MON dynstat_wvel_min             =  -5.2445685933209E-04
(PID.TID 0000.0001) %MON dynstat_wvel_mean            =   2.0077012594334E-10
(PID.TID 0000.0001) %MON dynstat_wvel_sd              =   1.1021335220863E-05
(PID.TID 0000.0001) %MON dynstat_wvel_del2            =   4.4725074784514E-08
(PID.TID 0000.0001) %MON dynstat_theta_max            =   1.2000000000000E+00
(PID.TID 0000.0001) %MON dynstat_theta_min            =  -1.0000000000000E+00
(PID.TID 0000.0001) %MON dynstat_theta_mean           =   5.6530349419011E-01
(PID.TID 0000.0001) %MON dynstat_theta_sd             =   8.4901243254957E-01
(PID.TID 0000.0001) %MON dynstat_theta_del2           =   1.4947210706616E-06
(PID.TID 0000.0001) %MON dynstat_salt_max             =   3.4700000000000E+01
(PID.TID 0000.0001) %MON dynstat_salt_min             =   3.4000000000000E+01
(PID.TID 0000.0001) %MON dynstat_salt_mean            =   3.4498035201837E+01
(PID.TID 0000.0001) %MON dynstat_salt_sd              =   2.7013989922398E-01
(PID.TID 0000.0001) %MON dynstat_salt_del2            =   5.8784706120169E-07
(PID.TID 0000.0001) %MON advcfl_uvel_max              =   1.3260567860683E-03
(PID.TID 0000.0001) %MON advcfl_vvel_max              =   1.0554874807827E-03
(PID.TID 0000.0001) %MON advcfl_wvel_max              =   2.6222842966605E-03
(PID.TID 0000.0001) %MON advcfl_W_hf_max              =   2.6222842966605E-03
(PID.TID 0000.0001) %MON pe_b_mean                    =  -6.8249724697446E-01
(PID.TID 0000.0001) %MON ke_max                       =   5.3925055150463E-05
(PID.TID 0000.0001) %MON ke_mean                      =   7.9484734378645E-08
(PID.TID 0000.0001) %MON ke_vol                       =   4.6182961968861E+12
(PID.TID 0000.0001) // =======================================================
(PID.TID 0000.0001) // End MONITOR dynamic field statistics
(PID.TID 0000.0001) // =======================================================
(PID.TID 0000.0001) // =======================================================
(PID.TID 0000.0001) // Begin OBCS MONITOR field statistics
(PID.TID 0000.0001) // =======================================================
(PID.TID 0000.0001) %MON obc_N_vVel_max               =  -7.9333080585629E-08
(PID.TID 0000.0001) %MON obc_N_vVel_min               =  -7.9333080585630E-08
(PID.TID 0000.0001) %MON obc_N_vVel_mean              =  -7.9333080585630E-08
(PID.TID 0000.0001) %MON obc_N_vVel_sd                =  -4.3387349787156E-29
(PID.TID 0000.0001) %MON obc_N_vVel_Int               =  -5.2359833186516E+00
(PID.TID 0000.0001) // =======================================================
(PID.TID 0000.0001) // End OBCS MONITOR field statistics
(PID.TID 0000.0001) // =======================================================
 cg2d: Sum(rhs),rhsMax =   3.01067607258494E+00  4.53047215828206E+02
(PID.TID 0000.0001)      cg2d_init_res =   1.82600029611928E-06
(PID.TID 0000.0001)      cg2d_iters(min,last) =      -1      73
(PID.TID 0000.0001)      cg2d_last_res =   7.26862876442155E-12
(PID.TID 0000.0001) // =======================================================
(PID.TID 0000.0001) // Begin MONITOR dynamic field statistics
(PID.TID 0000.0001) // =======================================================
(PID.TID 0000.0001) %MON time_tsnumber                =                   825
(PID.TID 0000.0001) %MON time_secondsf                =   8.2500000000000E+04
(PID.TID 0000.0001) %MON dynstat_eta_max              =   5.7977579073151E+00
(PID.TID 0000.0001) %MON dynstat_eta_min              =  -1.4174418440328E+01
(PID.TID 0000.0001) %MON dynstat_eta_mean             =  -2.5258859489726E+00
(PID.TID 0000.0001) %MON dynstat_eta_sd               =   4.9416063598754E+00
(PID.TID 0000.0001) %MON dynstat_eta_del2             =   1.9058266501420E-01
(PID.TID 0000.0001) %MON dynstat_uvel_max             =   3.5893707870418E-03
(PID.TID 0000.0001) %MON dynstat_uvel_min             =  -1.3296190204160E-02
(PID.TID 0000.0001) %MON dynstat_uvel_mean            =  -1.1606666970665E-09
(PID.TID 0000.0001) %MON dynstat_uvel_sd              =   3.4943672077711E-04
(PID.TID 0000.0001) %MON dynstat_uvel_del2            =   5.7947613574394E-07
(PID.TID 0000.0001) %MON dynstat_vvel_max             =   1.0575534792978E-02
(PID.TID 0000.0001) %MON dynstat_vvel_min             =  -3.7282248778219E-03
(PID.TID 0000.0001) %MON dynstat_vvel_mean            =  -6.3530329586601E-08
(PID.TID 0000.0001) %MON dynstat_vvel_sd              =   2.0000025826289E-04
(PID.TID 0000.0001) %MON dynstat_vvel_del2            =   5.3516627666643E-07
(PID.TID 0000.0001) %MON dynstat_wvel_max             =   5.2570831112371E-04
(PID.TID 0000.0001) %MON dynstat_wvel_min             =  -5.2623417914138E-04
(PID.TID 0000.0001) %MON dynstat_wvel_mean            =   2.0131411164316E-10
(PID.TID 0000.0001) %MON dynstat_wvel_sd              =   1.1071302531608E-05
(PID.TID 0000.0001) %MON dynstat_wvel_del2            =   4.5113696559221E-08
(PID.TID 0000.0001) %MON dynstat_theta_max            =   1.2000000000000E+00
(PID.TID 0000.0001) %MON dynstat_theta_min            =  -1.0000000000000E+00
(PID.TID 0000.0001) %MON dynstat_theta_mean           =   5.6530312260036E-01
(PID.TID 0000.0001) %MON dynstat_theta_sd             =   8.4901228809705E-01
(PID.TID 0000.0001) %MON dynstat_theta_del2           =   1.4977459595587E-06
(PID.TID 0000.0001) %MON dynstat_salt_max             =   3.4700000000000E+01
(PID.TID 0000.0001) %MON dynstat_salt_min             =   3.4000000000000E+01
(PID.TID 0000.0001) %MON dynstat_salt_mean            =   3.4498035053862E+01
(PID.TID 0000.0001) %MON dynstat_salt_sd              =   2.7013984654768E-01
(PID.TID 0000.0001) %MON dynstat_salt_del2            =   5.8907324933653E-07
(PID.TID 0000.0001) %MON advcfl_uvel_max              =   1.3296190204160E-03
(PID.TID 0000.0001) %MON advcfl_vvel_max              =   1.0575534792978E-03
(PID.TID 0000.0001) %MON advcfl_wvel_max              =   2.6311708957069E-03
(PID.TID 0000.0001) %MON advcfl_W_hf_max              =   2.6311708957069E-03
(PID.TID 0000.0001) %MON pe_b_mean                    =  -6.8249626940436E-01
(PID.TID 0000.0001) %MON ke_max                       =   5.4214218111772E-05
(PID.TID 0000.0001) %MON ke_mean                      =   7.9904742911908E-08
(PID.TID 0000.0001) %MON ke_vol                       =   4.6182962171552E+12
(PID.TID 0000.0001) // =======================================================
(PID.TID 0000.0001) // End MONITOR dynamic field statistics
(PID.TID 0000.0001) // =======================================================
(PID.TID 0000.0001) // =======================================================
(PID.TID 0000.0001) // Begin OBCS MONITOR field statistics
(PID.TID 0000.0001) // =======================================================
(PID.TID 0000.0001) %MON obc_N_vVel_max               =  -7.9756722906295E-08
(PID.TID 0000.0001) %MON obc_N_vVel_min               =  -7.9756722906297E-08
(PID.TID 0000.0001) %MON obc_N_vVel_mean              =  -7.9756722906297E-08
(PID.TID 0000.0001) %MON obc_N_vVel_sd                =  -4.5990590774385E-28
(PID.TID 0000.0001) %MON obc_N_vVel_Int               =  -5.2639437118156E+00
(PID.TID 0000.0001) // =======================================================
(PID.TID 0000.0001) // End OBCS MONITOR field statistics
(PID.TID 0000.0001) // =======================================================
 cg2d: Sum(rhs),rhsMax =   3.01067203950582E+00  4.53047208342951E+02
(PID.TID 0000.0001)      cg2d_init_res =   1.83328977877437E-06
(PID.TID 0000.0001)      cg2d_iters(min,last) =      -1      73
(PID.TID 0000.0001)      cg2d_last_res =   7.28670627253191E-12
(PID.TID 0000.0001) // =======================================================
(PID.TID 0000.0001) // Begin MONITOR dynamic field statistics
(PID.TID 0000.0001) // =======================================================
(PID.TID 0000.0001) %MON time_tsnumber                =                   826
(PID.TID 0000.0001) %MON time_secondsf                =   8.2600000000000E+04
(PID.TID 0000.0001) %MON dynstat_eta_max              =   5.7977606822062E+00
(PID.TID 0000.0001) %MON dynstat_eta_min              =  -1.4174412603680E+01
(PID.TID 0000.0001) %MON dynstat_eta_mean             =  -2.5258825235820E+00
(PID.TID 0000.0001) %MON dynstat_eta_sd               =   4.9416053224891E+00
(PID.TID 0000.0001) %MON dynstat_eta_del2             =   1.9058267266661E-01
(PID.TID 0000.0001) %MON dynstat_uvel_max             =   3.5945410638654E-03
(PID.TID 0000.0001) %MON dynstat_uvel_min             =  -1.3331883028468E-02
(PID.TID 0000.0001) %MON dynstat_uvel_mean            =  -1.1619113563029E-09
(PID.TID 0000.0001) %MON dynstat_uvel_sd              =   3.5038911669577E-04
(PID.TID 0000.0001) %MON dynstat_uvel_del2            =   5.8079982385305E-07
(PID.TID 0000.0001) %MON dynstat_vvel_max             =   1.0596218815225E-02
(PID.TID 0000.0001) %MON dynstat_vvel_min             =  -3.7376662514896E-03
(PID.TID 0000.0001) %MON dynstat_vvel_mean            =  -6.3915762152807E-08
(PID.TID 0000.0001) %MON dynstat_vvel_sd              =   2.0047740260914E-04
(PID.TID 0000.0001) %MON dynstat_vvel_del2            =   5.3635099232084E-07
(PID.TID 0000.0001) %MON dynstat_wvel_max             =   5.2727361584496E-04
(PID.TID 0000.0001) %MON dynstat_wvel_min             =  -5.2801697338286E-04
(PID.TID 0000.0001) %MON dynstat_wvel_mean            =   2.0184068042561E-10
(PID.TID 0000.0001) %MON dynstat_wvel_sd              =   1.1124602154715E-05
(PID.TID 0000.0001) %MON dynstat_wvel_del2            =   4.5533546797905E-08
(PID.TID 0000.0001) %MON dynstat_theta_max            =   1.2000000000000E+00
(PID.TID 0000.0001) %MON dynstat_theta_min            =  -1.0000000000000E+00
(PID.TID 0000.0001) %MON dynstat_theta_mean           =   5.6530275032410E-01
(PID.TID 0000.0001) %MON dynstat_theta_sd             =   8.4901214327115E-01
(PID.TID 0000.0001) %MON dynstat_theta_del2           =   1.5007791619476E-06
(PID.TID 0000.0001) %MON dynstat_salt_max             =   3.4700000000000E+01
(PID.TID 0000.0001) %MON dynstat_salt_min             =   3.4000000000000E+01
(PID.TID 0000.0001) %MON dynstat_salt_mean            =   3.4498034905614E+01
(PID.TID 0000.0001) %MON dynstat_salt_sd              =   2.7013979372515E-01
(PID.TID 0000.0001) %MON dynstat_salt_del2            =   5.9030269252249E-07
(PID.TID 0000.0001) %MON advcfl_uvel_max              =   1.3331883028468E-03
(PID.TID 0000.0001) %MON advcfl_vvel_max              =   1.0596218815225E-03
(PID.TID 0000.0001) %MON advcfl_wvel_max              =   2.6400848669143E-03
(PID.TID 0000.0001) %MON advcfl_W_hf_max              =   2.6400848669143E-03
(PID.TID 0000.0001) %MON pe_b_mean                    =  -6.8249528987261E-01
(PID.TID 0000.0001) %MON ke_max                       =   5.4504723513387E-05
(PID.TID 0000.0001) %MON ke_mean                      =   8.0327273783403E-08
(PID.TID 0000.0001) %MON ke_vol                       =   4.6182962374631E+12
(PID.TID 0000.0001) // =======================================================
(PID.TID 0000.0001) // End MONITOR dynamic field statistics
(PID.TID 0000.0001) // =======================================================
(PID.TID 0000.0001) // =======================================================
(PID.TID 0000.0001) // Begin OBCS MONITOR field statistics
(PID.TID 0000.0001) // =======================================================
(PID.TID 0000.0001) %MON obc_N_vVel_max               =  -8.0167951586340E-08
(PID.TID 0000.0001) %MON obc_N_vVel_min               =  -8.0167951586341E-08
(PID.TID 0000.0001) %MON obc_N_vVel_mean              =  -8.0167951586341E-08
(PID.TID 0000.0001) %MON obc_N_vVel_sd                =  -1.2621774483536E-29
(PID.TID 0000.0001) %MON obc_N_vVel_Int               =  -5.2910848046985E+00
(PID.TID 0000.0001) // =======================================================
(PID.TID 0000.0001) // End OBCS MONITOR field statistics
(PID.TID 0000.0001) // =======================================================
 cg2d: Sum(rhs),rhsMax =   3.01066799847055E+00  4.53047200879419E+02
(PID.TID 0000.0001)      cg2d_init_res =   1.84079296585810E-06
(PID.TID 0000.0001)      cg2d_iters(min,last) =      -1      73
(PID.TID 0000.0001)      cg2d_last_res =   7.30495142132227E-12
(PID.TID 0000.0001) // =======================================================
(PID.TID 0000.0001) // Begin MONITOR dynamic field statistics
(PID.TID 0000.0001) // =======================================================
(PID.TID 0000.0001) %MON time_tsnumber                =                   827
(PID.TID 0000.0001) %MON time_secondsf                =   8.2700000000000E+04
(PID.TID 0000.0001) %MON dynstat_eta_max              =   5.7977634576685E+00
(PID.TID 0000.0001) %MON dynstat_eta_min              =  -1.4174406746628E+01
(PID.TID 0000.0001) %MON dynstat_eta_mean             =  -2.5258790916376E+00
(PID.TID 0000.0001) %MON dynstat_eta_sd               =   4.9416042833475E+00
(PID.TID 0000.0001) %MON dynstat_eta_del2             =   1.9058268034432E-01
(PID.TID 0000.0001) %MON dynstat_uvel_max             =   3.5997103317840E-03
(PID.TID 0000.0001) %MON dynstat_uvel_min             =  -1.3367646350195E-02
(PID.TID 0000.0001) %MON dynstat_uvel_mean            =  -1.1630399422541E-09
(PID.TID 0000.0001) %MON dynstat_uvel_sd              =   3.5134460693155E-04
(PID.TID 0000.0001) %MON dynstat_uvel_del2            =   5.8212717994975E-07
(PID.TID 0000.0001) %MON dynstat_vvel_max             =   1.0616926823823E-02
(PID.TID 0000.0001) %MON dynstat_vvel_min             =  -3.7471242652085E-03
(PID.TID 0000.0001) %MON dynstat_vvel_mean            =  -6.4291374223034E-08
(PID.TID 0000.0001) %MON dynstat_vvel_sd              =   2.0095562828462E-04
(PID.TID 0000.0001) %MON dynstat_vvel_del2            =   5.3753669953190E-07
(PID.TID 0000.0001) %MON dynstat_wvel_max             =   5.2884226865991E-04
(PID.TID 0000.0001) %MON dynstat_wvel_min             =  -5.2980525087049E-04
(PID.TID 0000.0001) %MON dynstat_wvel_mean            =   2.0234447294331E-10
(PID.TID 0000.0001) %MON dynstat_wvel_sd              =   1.1177285656607E-05
(PID.TID 0000.0001) %MON dynstat_wvel_del2            =   4.5948911712672E-08
(PID.TID 0000.0001) %MON dynstat_theta_max            =   1.2000000000000E+00
(PID.TID 0000.0001) %MON dynstat_theta_min            =  -1.0000000000000E+00
(PID.TID 0000.0001) %MON dynstat_theta_mean           =   5.6530237735222E-01
(PID.TID 0000.0001) %MON dynstat_theta_sd             =   8.4901199807579E-01
(PID.TID 0000.0001) %MON dynstat_theta_del2           =   1.5038299278586E-06
(PID.TID 0000.0001) %MON dynstat_salt_max             =   3.4700000000000E+01
(PID.TID 0000.0001) %MON dynstat_salt_min             =   3.4000000000000E+01
(PID.TID 0000.0001) %MON dynstat_salt_mean            =   3.4498034757088E+01
(PID.TID 0000.0001) %MON dynstat_salt_sd              =   2.7013974075770E-01
(PID.TID 0000.0001) %MON dynstat_salt_del2            =   5.9153777402279E-07
(PID.TID 0000.0001) %MON advcfl_uvel_max              =   1.3367646350195E-03
(PID.TID 0000.0001) %MON advcfl_vvel_max              =   1.0616926823823E-03
(PID.TID 0000.0001) %MON advcfl_wvel_max              =   2.6490262543525E-03
(PID.TID 0000.0001) %MON advcfl_W_hf_max              =   2.6490262543525E-03
(PID.TID 0000.0001) %MON pe_b_mean                    =  -6.8249430837531E-01
(PID.TID 0000.0001) %MON ke_max                       =   5.4796575953188E-05
(PID.TID 0000.0001) %MON ke_mean                      =   8.0752206343108E-08
(PID.TID 0000.0001) %MON ke_vol                       =   4.6182962578099E+12
(PID.TID 0000.0001) // =======================================================
(PID.TID 0000.0001) // End MONITOR dynamic field statistics
(PID.TID 0000.0001) // =======================================================
(PID.TID 0000.0001) // =======================================================
(PID.TID 0000.0001) // Begin OBCS MONITOR field statistics
(PID.TID 0000.0001) // =======================================================
(PID.TID 0000.0001) %MON obc_N_vVel_max               =  -8.0566617822007E-08
(PID.TID 0000.0001) %MON obc_N_vVel_min               =  -8.0566617822008E-08
(PID.TID 0000.0001) %MON obc_N_vVel_mean              =  -8.0566617822008E-08
(PID.TID 0000.0001) %MON obc_N_vVel_sd                =  -3.2027752751973E-28
(PID.TID 0000.0001) %MON obc_N_vVel_Int               =  -5.3173967762526E+00
(PID.TID 0000.0001) // =======================================================
(PID.TID 0000.0001) // End OBCS MONITOR field statistics
(PID.TID 0000.0001) // =======================================================
 cg2d: Sum(rhs),rhsMax =   3.01066394946469E+00  4.53047193438472E+02
(PID.TID 0000.0001)      cg2d_init_res =   1.84815591976408E-06
(PID.TID 0000.0001)      cg2d_iters(min,last) =      -1      73
(PID.TID 0000.0001)      cg2d_last_res =   7.32373193698299E-12
(PID.TID 0000.0001) // =======================================================
(PID.TID 0000.0001) // Begin MONITOR dynamic field statistics
(PID.TID 0000.0001) // =======================================================
(PID.TID 0000.0001) %MON time_tsnumber                =                   828
(PID.TID 0000.0001) %MON time_secondsf                =   8.2800000000000E+04
(PID.TID 0000.0001) %MON dynstat_eta_max              =   5.7977662338428E+00
(PID.TID 0000.0001) %MON dynstat_eta_min              =  -1.4174400869057E+01
(PID.TID 0000.0001) %MON dynstat_eta_mean             =  -2.5258756531322E+00
(PID.TID 0000.0001) %MON dynstat_eta_sd               =   4.9416032424520E+00
(PID.TID 0000.0001) %MON dynstat_eta_del2             =   1.9058268804755E-01
(PID.TID 0000.0001) %MON dynstat_uvel_max             =   3.6048785430651E-03
(PID.TID 0000.0001) %MON dynstat_uvel_min             =  -1.3403480174659E-02
(PID.TID 0000.0001) %MON dynstat_uvel_mean            =  -1.1640753366896E-09
(PID.TID 0000.0001) %MON dynstat_uvel_sd              =   3.5230319336290E-04
(PID.TID 0000.0001) %MON dynstat_uvel_del2            =   5.8345822636424E-07
(PID.TID 0000.0001) %MON dynstat_vvel_max             =   1.0637658760098E-02
(PID.TID 0000.0001) %MON dynstat_vvel_min             =  -3.7565989469588E-03
(PID.TID 0000.0001) %MON dynstat_vvel_mean            =  -6.4657150820761E-08
(PID.TID 0000.0001) %MON dynstat_vvel_sd              =   2.0143429515581E-04
(PID.TID 0000.0001) %MON dynstat_vvel_del2            =   5.3871527504631E-07
(PID.TID 0000.0001) %MON dynstat_wvel_max             =   5.3041427050305E-04
(PID.TID 0000.0001) %MON dynstat_wvel_min             =  -5.3159902204327E-04
(PID.TID 0000.0001) %MON dynstat_wvel_mean            =   2.0283795611916E-10
(PID.TID 0000.0001) %MON dynstat_wvel_sd              =   1.1225587335798E-05
(PID.TID 0000.0001) %MON dynstat_wvel_del2            =   4.6325979998523E-08
(PID.TID 0000.0001) %MON dynstat_theta_max            =   1.2000000000000E+00
(PID.TID 0000.0001) %MON dynstat_theta_min            =  -1.0000000000000E+00
(PID.TID 0000.0001) %MON dynstat_theta_mean           =   5.6530200367636E-01
(PID.TID 0000.0001) %MON dynstat_theta_sd             =   8.4901185251535E-01
(PID.TID 0000.0001) %MON dynstat_theta_del2           =   1.5069066880139E-06
(PID.TID 0000.0001) %MON dynstat_salt_max             =   3.4700000000000E+01
(PID.TID 0000.0001) %MON dynstat_salt_min             =   3.4000000000000E+01
(PID.TID 0000.0001) %MON dynstat_salt_mean            =   3.4498034608283E+01
(PID.TID 0000.0001) %MON dynstat_salt_sd              =   2.7013968764651E-01
(PID.TID 0000.0001) %MON dynstat_salt_del2            =   5.9278067705051E-07
(PID.TID 0000.0001) %MON advcfl_uvel_max              =   1.3403480174659E-03
(PID.TID 0000.0001) %MON advcfl_vvel_max              =   1.0637658760098E-03
(PID.TID 0000.0001) %MON advcfl_wvel_max              =   2.6579951102164E-03
(PID.TID 0000.0001) %MON advcfl_W_hf_max              =   2.6579951102164E-03
(PID.TID 0000.0001) %MON pe_b_mean                    =  -6.8249332490884E-01
(PID.TID 0000.0001) %MON ke_max                       =   5.5089779905473E-05
(PID.TID 0000.0001) %MON ke_mean                      =   8.1179422553963E-08
(PID.TID 0000.0001) %MON ke_vol                       =   4.6182962781957E+12
(PID.TID 0000.0001) // =======================================================
(PID.TID 0000.0001) // End MONITOR dynamic field statistics
(PID.TID 0000.0001) // =======================================================
(PID.TID 0000.0001) // =======================================================
(PID.TID 0000.0001) // Begin OBCS MONITOR field statistics
(PID.TID 0000.0001) // =======================================================
(PID.TID 0000.0001) %MON obc_N_vVel_max               =  -8.0953669969727E-08
(PID.TID 0000.0001) %MON obc_N_vVel_min               =  -8.0953669969728E-08
(PID.TID 0000.0001) %MON obc_N_vVel_mean              =  -8.0953669969727E-08
(PID.TID 0000.0001) %MON obc_N_vVel_sd                =   5.1789256393112E-15
(PID.TID 0000.0001) %MON obc_N_vVel_Int               =  -5.3429422180020E+00
(PID.TID 0000.0001) // =======================================================
(PID.TID 0000.0001) // End OBCS MONITOR field statistics
(PID.TID 0000.0001) // =======================================================
 cg2d: Sum(rhs),rhsMax =   3.01065989247028E+00  4.53047186021677E+02
(PID.TID 0000.0001)      cg2d_init_res =   1.85502313768005E-06
(PID.TID 0000.0001)      cg2d_iters(min,last) =      -1      73
(PID.TID 0000.0001)      cg2d_last_res =   7.34283761139714E-12
(PID.TID 0000.0001) // =======================================================
(PID.TID 0000.0001) // Begin MONITOR dynamic field statistics
(PID.TID 0000.0001) // =======================================================
(PID.TID 0000.0001) %MON time_tsnumber                =                   829
(PID.TID 0000.0001) %MON time_secondsf                =   8.2900000000000E+04
(PID.TID 0000.0001) %MON dynstat_eta_max              =   5.7977690108413E+00
(PID.TID 0000.0001) %MON dynstat_eta_min              =  -1.4174394970877E+01
(PID.TID 0000.0001) %MON dynstat_eta_mean             =  -2.5258722080592E+00
(PID.TID 0000.0001) %MON dynstat_eta_sd               =   4.9416021998020E+00
(PID.TID 0000.0001) %MON dynstat_eta_del2             =   1.9058269577627E-01
(PID.TID 0000.0001) %MON dynstat_uvel_max             =   3.6100456505554E-03
(PID.TID 0000.0001) %MON dynstat_uvel_min             =  -1.3439384507923E-02
(PID.TID 0000.0001) %MON dynstat_uvel_mean            =  -1.1650508255658E-09
(PID.TID 0000.0001) %MON dynstat_uvel_sd              =   3.5326487792935E-04
(PID.TID 0000.0001) %MON dynstat_uvel_del2            =   5.8479298511731E-07
(PID.TID 0000.0001) %MON dynstat_vvel_max             =   1.0658414566419E-02
(PID.TID 0000.0001) %MON dynstat_vvel_min             =  -3.7660903409673E-03
(PID.TID 0000.0001) %MON dynstat_vvel_mean            =  -6.5011987971256E-08
(PID.TID 0000.0001) %MON dynstat_vvel_sd              =   2.0191284066409E-04
(PID.TID 0000.0001) %MON dynstat_vvel_del2            =   5.3987971148935E-07
(PID.TID 0000.0001) %MON dynstat_wvel_max             =   5.3198962582017E-04
(PID.TID 0000.0001) %MON dynstat_wvel_min             =  -5.3339829700412E-04
(PID.TID 0000.0001) %MON dynstat_wvel_mean            =   2.0332373549904E-10
(PID.TID 0000.0001) %MON dynstat_wvel_sd              =   1.1266261405408E-05
(PID.TID 0000.0001) %MON dynstat_wvel_del2            =   4.6635789528901E-08
(PID.TID 0000.0001) %MON dynstat_theta_max            =   1.2000000000000E+00
(PID.TID 0000.0001) %MON dynstat_theta_min            =  -1.0000000000000E+00
(PID.TID 0000.0001) %MON dynstat_theta_mean           =   5.6530162928880E-01
(PID.TID 0000.0001) %MON dynstat_theta_sd             =   8.4901170659320E-01
(PID.TID 0000.0001) %MON dynstat_theta_del2           =   1.5100163205670E-06
(PID.TID 0000.0001) %MON dynstat_salt_max             =   3.4700000000000E+01
(PID.TID 0000.0001) %MON dynstat_salt_min             =   3.4000000000000E+01
(PID.TID 0000.0001) %MON dynstat_salt_mean            =   3.4498034459195E+01
(PID.TID 0000.0001) %MON dynstat_salt_sd              =   2.7013963439258E-01
(PID.TID 0000.0001) %MON dynstat_salt_del2            =   5.9403318196950E-07
(PID.TID 0000.0001) %MON advcfl_uvel_max              =   1.3439384507923E-03
(PID.TID 0000.0001) %MON advcfl_vvel_max              =   1.0658414566419E-03
(PID.TID 0000.0001) %MON advcfl_wvel_max              =   2.6669914850206E-03
(PID.TID 0000.0001) %MON advcfl_W_hf_max              =   2.6669914850206E-03
(PID.TID 0000.0001) %MON pe_b_mean                    =  -6.8249233946967E-01
(PID.TID 0000.0001) %MON ke_max                       =   5.5384339871780E-05
(PID.TID 0000.0001) %MON ke_mean                      =   8.1608818874060E-08
(PID.TID 0000.0001) %MON ke_vol                       =   4.6182962986204E+12
(PID.TID 0000.0001) // =======================================================
(PID.TID 0000.0001) // End MONITOR dynamic field statistics
(PID.TID 0000.0001) // =======================================================
(PID.TID 0000.0001) // =======================================================
(PID.TID 0000.0001) // Begin OBCS MONITOR field statistics
(PID.TID 0000.0001) // =======================================================
(PID.TID 0000.0001) %MON obc_N_vVel_max               =  -8.1327940957989E-08
(PID.TID 0000.0001) %MON obc_N_vVel_min               =  -8.1327940957992E-08
(PID.TID 0000.0001) %MON obc_N_vVel_mean              =  -8.1327940957989E-08
(PID.TID 0000.0001) %MON obc_N_vVel_sd                =   2.0389450631429E-14
(PID.TID 0000.0001) %MON obc_N_vVel_Int               =  -5.3676441032273E+00
(PID.TID 0000.0001) // =======================================================
(PID.TID 0000.0001) // End OBCS MONITOR field statistics
(PID.TID 0000.0001) // =======================================================
 cg2d: Sum(rhs),rhsMax =   3.01065582746664E+00  4.53047178630894E+02
(PID.TID 0000.0001)      cg2d_init_res =   1.86109623148098E-06
(PID.TID 0000.0001)      cg2d_iters(min,last) =      -1      73
(PID.TID 0000.0001)      cg2d_last_res =   7.36211117545195E-12
(PID.TID 0000.0001) // =======================================================
(PID.TID 0000.0001) // Begin MONITOR dynamic field statistics
(PID.TID 0000.0001) // =======================================================
(PID.TID 0000.0001) %MON time_tsnumber                =                   830
(PID.TID 0000.0001) %MON time_secondsf                =   8.3000000000000E+04
(PID.TID 0000.0001) %MON dynstat_eta_max              =   5.7977717887955E+00
(PID.TID 0000.0001) %MON dynstat_eta_min              =  -1.4174389052009E+01
(PID.TID 0000.0001) %MON dynstat_eta_mean             =  -2.5258687564119E+00
(PID.TID 0000.0001) %MON dynstat_eta_sd               =   4.9416011553988E+00
(PID.TID 0000.0001) %MON dynstat_eta_del2             =   1.9058270353056E-01
(PID.TID 0000.0001) %MON dynstat_uvel_max             =   3.6152116070181E-03
(PID.TID 0000.0001) %MON dynstat_uvel_min             =  -1.3475359355438E-02
(PID.TID 0000.0001) %MON dynstat_uvel_mean            =  -1.1660093824634E-09
(PID.TID 0000.0001) %MON dynstat_uvel_sd              =   3.5422966257237E-04
(PID.TID 0000.0001) %MON dynstat_uvel_del2            =   5.8613147722434E-07
(PID.TID 0000.0001) %MON dynstat_vvel_max             =   1.0679194184816E-02
(PID.TID 0000.0001) %MON dynstat_vvel_min             =  -3.7755984924903E-03
(PID.TID 0000.0001) %MON dynstat_vvel_mean            =  -6.5353793359780E-08
(PID.TID 0000.0001) %MON dynstat_vvel_sd              =   2.0239082985483E-04
(PID.TID 0000.0001) %MON dynstat_vvel_del2            =   5.4102475275587E-07
(PID.TID 0000.0001) %MON dynstat_wvel_max             =   5.3356833922418E-04
(PID.TID 0000.0001) %MON dynstat_wvel_min             =  -5.3520308598488E-04
(PID.TID 0000.0001) %MON dynstat_wvel_mean            =   2.0380376866289E-10
(PID.TID 0000.0001) %MON dynstat_wvel_sd              =   1.1296853002551E-05
(PID.TID 0000.0001) %MON dynstat_wvel_del2            =   4.6856478160280E-08
(PID.TID 0000.0001) %MON dynstat_theta_max            =   1.2000000000000E+00
(PID.TID 0000.0001) %MON dynstat_theta_min            =  -1.0000000000000E+00
(PID.TID 0000.0001) %MON dynstat_theta_mean           =   5.6530125418238E-01
(PID.TID 0000.0001) %MON dynstat_theta_sd             =   8.4901156031156E-01
(PID.TID 0000.0001) %MON dynstat_theta_del2           =   1.5131636161451E-06
(PID.TID 0000.0001) %MON dynstat_salt_max             =   3.4700000000000E+01
(PID.TID 0000.0001) %MON dynstat_salt_min             =   3.4000000000000E+01
(PID.TID 0000.0001) %MON dynstat_salt_mean            =   3.4498034309822E+01
(PID.TID 0000.0001) %MON dynstat_salt_sd              =   2.7013958099678E-01
(PID.TID 0000.0001) %MON dynstat_salt_del2            =   5.9529648640972E-07
(PID.TID 0000.0001) %MON advcfl_uvel_max              =   1.3475359355438E-03
(PID.TID 0000.0001) %MON advcfl_vvel_max              =   1.0679194184816E-03
(PID.TID 0000.0001) %MON advcfl_wvel_max              =   2.6760154299244E-03
(PID.TID 0000.0001) %MON advcfl_W_hf_max              =   2.6760154299244E-03
(PID.TID 0000.0001) %MON pe_b_mean                    =  -6.8249135205420E-01
(PID.TID 0000.0001) %MON ke_max                       =   5.5680260357630E-05
(PID.TID 0000.0001) %MON ke_mean                      =   8.2040316546032E-08
(PID.TID 0000.0001) %MON ke_vol                       =   4.6182963190841E+12
(PID.TID 0000.0001) // =======================================================
(PID.TID 0000.0001) // End MONITOR dynamic field statistics
(PID.TID 0000.0001) // =======================================================
(PID.TID 0000.0001) // =======================================================
(PID.TID 0000.0001) // Begin OBCS MONITOR field statistics
(PID.TID 0000.0001) // =======================================================
(PID.TID 0000.0001) %MON obc_N_vVel_max               =  -8.1687488617137E-08
(PID.TID 0000.0001) %MON obc_N_vVel_min               =  -8.1687488617137E-08
(PID.TID 0000.0001) %MON obc_N_vVel_mean              =  -8.1687488617137E-08
(PID.TID 0000.0001) %MON obc_N_vVel_sd                =  -2.8793423040567E-28
(PID.TID 0000.0001) %MON obc_N_vVel_Int               =  -5.3913742487311E+00
(PID.TID 0000.0001) // =======================================================
(PID.TID 0000.0001) // End OBCS MONITOR field statistics
(PID.TID 0000.0001) // =======================================================
 cg2d: Sum(rhs),rhsMax =   3.01065175443841E+00  4.53047171268285E+02
(PID.TID 0000.0001)      cg2d_init_res =   1.86617180645208E-06
(PID.TID 0000.0001)      cg2d_iters(min,last) =      -1      73
(PID.TID 0000.0001)      cg2d_last_res =   7.38151725869751E-12
(PID.TID 0000.0001) // =======================================================
(PID.TID 0000.0001) // Begin MONITOR dynamic field statistics
(PID.TID 0000.0001) // =======================================================
(PID.TID 0000.0001) %MON time_tsnumber                =                   831
(PID.TID 0000.0001) %MON time_secondsf                =   8.3100000000000E+04
(PID.TID 0000.0001) %MON dynstat_eta_max              =   5.7977745678139E+00
(PID.TID 0000.0001) %MON dynstat_eta_min              =  -1.4174383112364E+01
(PID.TID 0000.0001) %MON dynstat_eta_mean             =  -2.5258652981893E+00
(PID.TID 0000.0001) %MON dynstat_eta_sd               =   4.9416001092440E+00
(PID.TID 0000.0001) %MON dynstat_eta_del2             =   1.9058271131036E-01
(PID.TID 0000.0001) %MON dynstat_uvel_max             =   3.6203763652782E-03
(PID.TID 0000.0001) %MON dynstat_uvel_min             =  -1.3511404722125E-02
(PID.TID 0000.0001) %MON dynstat_uvel_mean            =  -1.1669986685946E-09
(PID.TID 0000.0001) %MON dynstat_uvel_sd              =   3.5519754917918E-04
(PID.TID 0000.0001) %MON dynstat_uvel_del2            =   5.8747372216398E-07
(PID.TID 0000.0001) %MON dynstat_vvel_max             =   1.0699997556961E-02
(PID.TID 0000.0001) %MON dynstat_vvel_min             =  -3.7851234465620E-03
(PID.TID 0000.0001) %MON dynstat_vvel_mean            =  -6.5679479667231E-08
(PID.TID 0000.0001) %MON dynstat_vvel_sd              =   2.0286799224194E-04
(PID.TID 0000.0001) %MON dynstat_vvel_del2            =   5.4214735122509E-07
(PID.TID 0000.0001) %MON dynstat_wvel_max             =   5.3515041524353E-04
(PID.TID 0000.0001) %MON dynstat_wvel_min             =  -5.3701339930980E-04
(PID.TID 0000.0001) %MON dynstat_wvel_mean            =   2.0428287461785E-10
(PID.TID 0000.0001) %MON dynstat_wvel_sd              =   1.1315887574888E-05
(PID.TID 0000.0001) %MON dynstat_wvel_del2            =   4.6974793278967E-08
(PID.TID 0000.0001) %MON dynstat_theta_max            =   1.2000000000000E+00
(PID.TID 0000.0001) %MON dynstat_theta_min            =  -1.0000000000000E+00
(PID.TID 0000.0001) %MON dynstat_theta_mean           =   5.6530087835120E-01
(PID.TID 0000.0001) %MON dynstat_theta_sd             =   8.4901141367682E-01
(PID.TID 0000.0001) %MON dynstat_theta_del2           =   1.5163506008653E-06
(PID.TID 0000.0001) %MON dynstat_salt_max             =   3.4700000000000E+01
(PID.TID 0000.0001) %MON dynstat_salt_min             =   3.4000000000000E+01
(PID.TID 0000.0001) %MON dynstat_salt_mean            =   3.4498034160161E+01
(PID.TID 0000.0001) %MON dynstat_salt_sd              =   2.7013952746084E-01
(PID.TID 0000.0001) %MON dynstat_salt_del2            =   5.9657114592896E-07
(PID.TID 0000.0001) %MON advcfl_uvel_max              =   1.3511404722125E-03
(PID.TID 0000.0001) %MON advcfl_vvel_max              =   1.0699997556961E-03
(PID.TID 0000.0001) %MON advcfl_wvel_max              =   2.6850669965490E-03
(PID.TID 0000.0001) %MON advcfl_W_hf_max              =   2.6850669965490E-03
(PID.TID 0000.0001) %MON pe_b_mean                    =  -6.8249036266016E-01
(PID.TID 0000.0001) %MON ke_max                       =   5.5977545872351E-05
(PID.TID 0000.0001) %MON ke_mean                      =   8.2473869362421E-08
(PID.TID 0000.0001) %MON ke_vol                       =   4.6182963395869E+12
(PID.TID 0000.0001) // =======================================================
(PID.TID 0000.0001) // End MONITOR dynamic field statistics
(PID.TID 0000.0001) // =======================================================
(PID.TID 0000.0001) // =======================================================
(PID.TID 0000.0001) // Begin OBCS MONITOR field statistics
(PID.TID 0000.0001) // =======================================================
(PID.TID 0000.0001) %MON obc_N_vVel_max               =  -8.2029805952280E-08
(PID.TID 0000.0001) %MON obc_N_vVel_min               =  -8.2029805952281E-08
(PID.TID 0000.0001) %MON obc_N_vVel_mean              =  -8.2029805952281E-08
(PID.TID 0000.0001) %MON obc_N_vVel_sd                =   9.6888826869408E-15
(PID.TID 0000.0001) %MON obc_N_vVel_Int               =  -5.4139671928505E+00
(PID.TID 0000.0001) // =======================================================
(PID.TID 0000.0001) // End OBCS MONITOR field statistics
(PID.TID 0000.0001) // =======================================================
 cg2d: Sum(rhs),rhsMax =   3.01064767337431E+00  4.53047163936280E+02
(PID.TID 0000.0001)      cg2d_init_res =   1.87015130454643E-06
(PID.TID 0000.0001)      cg2d_iters(min,last) =      -1      73
(PID.TID 0000.0001)      cg2d_last_res =   7.40091057838742E-12
(PID.TID 0000.0001) // =======================================================
(PID.TID 0000.0001) // Begin MONITOR dynamic field statistics
(PID.TID 0000.0001) // =======================================================
(PID.TID 0000.0001) %MON time_tsnumber                =                   832
(PID.TID 0000.0001) %MON time_secondsf                =   8.3200000000000E+04
(PID.TID 0000.0001) %MON dynstat_eta_max              =   5.7977773480026E+00
(PID.TID 0000.0001) %MON dynstat_eta_min              =  -1.4174377151879E+01
(PID.TID 0000.0001) %MON dynstat_eta_mean             =  -2.5258618333955E+00
(PID.TID 0000.0001) %MON dynstat_eta_sd               =   4.9415990613447E+00
(PID.TID 0000.0001) %MON dynstat_eta_del2             =   1.9058271911593E-01
(PID.TID 0000.0001) %MON dynstat_uvel_max             =   3.6255398782075E-03
(PID.TID 0000.0001) %MON dynstat_uvel_min             =  -1.3547520612096E-02
(PID.TID 0000.0001) %MON dynstat_uvel_mean            =  -1.1680682186005E-09
(PID.TID 0000.0001) %MON dynstat_uvel_sd              =   3.5616853954433E-04
(PID.TID 0000.0001) %MON dynstat_uvel_del2            =   5.8881973773453E-07
(PID.TID 0000.0001) %MON dynstat_vvel_max             =   1.0720824624381E-02
(PID.TID 0000.0001) %MON dynstat_vvel_min             =  -3.7946652481144E-03
(PID.TID 0000.0001) %MON dynstat_vvel_mean            =  -6.5984929782497E-08
(PID.TID 0000.0001) %MON dynstat_vvel_sd              =   2.0334424230993E-04
(PID.TID 0000.0001) %MON dynstat_vvel_del2            =   5.4324690732996E-07
(PID.TID 0000.0001) %MON dynstat_wvel_max             =   5.3673585838622E-04
(PID.TID 0000.0001) %MON dynstat_wvel_min             =  -5.3882924736476E-04
(PID.TID 0000.0001) %MON dynstat_wvel_mean            =   2.0476665389864E-10
(PID.TID 0000.0001) %MON dynstat_wvel_sd              =   1.1322970098761E-05
(PID.TID 0000.0001) %MON dynstat_wvel_del2            =   4.6986872466543E-08
(PID.TID 0000.0001) %MON dynstat_theta_max            =   1.2000000000000E+00
(PID.TID 0000.0001) %MON dynstat_theta_min            =  -1.0000000000000E+00
(PID.TID 0000.0001) %MON dynstat_theta_mean           =   5.6530050179052E-01
(PID.TID 0000.0001) %MON dynstat_theta_sd             =   8.4901126669664E-01
(PID.TID 0000.0001) %MON dynstat_theta_del2           =   1.5195764887556E-06
(PID.TID 0000.0001) %MON dynstat_salt_max             =   3.4700000000000E+01
(PID.TID 0000.0001) %MON dynstat_salt_min             =   3.4000000000000E+01
(PID.TID 0000.0001) %MON dynstat_salt_mean            =   3.4498034010212E+01
(PID.TID 0000.0001) %MON dynstat_salt_sd              =   2.7013947378735E-01
(PID.TID 0000.0001) %MON dynstat_salt_del2            =   5.9785693242615E-07
(PID.TID 0000.0001) %MON advcfl_uvel_max              =   1.3547520612096E-03
(PID.TID 0000.0001) %MON advcfl_vvel_max              =   1.0720824624381E-03
(PID.TID 0000.0001) %MON advcfl_wvel_max              =   2.6941462368238E-03
(PID.TID 0000.0001) %MON advcfl_W_hf_max              =   2.6941462368238E-03
(PID.TID 0000.0001) %MON pe_b_mean                    =  -6.8248937128669E-01
(PID.TID 0000.0001) %MON ke_max                       =   5.6276200927792E-05
(PID.TID 0000.0001) %MON ke_mean                      =   8.2909468215798E-08
(PID.TID 0000.0001) %MON ke_vol                       =   4.6182963601288E+12
(PID.TID 0000.0001) // =======================================================
(PID.TID 0000.0001) // End MONITOR dynamic field statistics
(PID.TID 0000.0001) // =======================================================
(PID.TID 0000.0001) // =======================================================
(PID.TID 0000.0001) // Begin OBCS MONITOR field statistics
(PID.TID 0000.0001) // =======================================================
(PID.TID 0000.0001) %MON obc_N_vVel_max               =  -8.2351491846447E-08
(PID.TID 0000.0001) %MON obc_N_vVel_min               =  -8.2351491846449E-08
(PID.TID 0000.0001) %MON obc_N_vVel_mean              =  -8.2351491846449E-08
(PID.TID 0000.0001) %MON obc_N_vVel_sd                =  -3.0528917032053E-28
(PID.TID 0000.0001) %MON obc_N_vVel_Int               =  -5.4351984618656E+00
(PID.TID 0000.0001) // =======================================================
(PID.TID 0000.0001) // End OBCS MONITOR field statistics
(PID.TID 0000.0001) // =======================================================
 cg2d: Sum(rhs),rhsMax =   3.01064358426242E+00  4.53047156637589E+02
(PID.TID 0000.0001)      cg2d_init_res =   1.87301303727457E-06
(PID.TID 0000.0001)      cg2d_iters(min,last) =      -1      73
(PID.TID 0000.0001)      cg2d_last_res =   7.42013335907340E-12
(PID.TID 0000.0001) // =======================================================
(PID.TID 0000.0001) // Begin MONITOR dynamic field statistics
(PID.TID 0000.0001) // =======================================================
(PID.TID 0000.0001) %MON time_tsnumber                =                   833
(PID.TID 0000.0001) %MON time_secondsf                =   8.3300000000000E+04
(PID.TID 0000.0001) %MON dynstat_eta_max              =   5.7977801294481E+00
(PID.TID 0000.0001) %MON dynstat_eta_min              =  -1.4174371170489E+01
(PID.TID 0000.0001) %MON dynstat_eta_mean             =  -2.5258583620357E+00
(PID.TID 0000.0001) %MON dynstat_eta_sd               =   4.9415980117077E+00
(PID.TID 0000.0001) %MON dynstat_eta_del2             =   1.9058272694734E-01
(PID.TID 0000.0001) %MON dynstat_uvel_max             =   3.6307020988424E-03
(PID.TID 0000.0001) %MON dynstat_uvel_min             =  -1.3583707028711E-02
(PID.TID 0000.0001) %MON dynstat_uvel_mean            =  -1.1692698862232E-09
(PID.TID 0000.0001) %MON dynstat_uvel_sd              =   3.5714263533380E-04
(PID.TID 0000.0001) %MON dynstat_uvel_del2            =   5.9016953994702E-07
(PID.TID 0000.0001) %MON dynstat_vvel_max             =   1.0741675328227E-02
(PID.TID 0000.0001) %MON dynstat_vvel_min             =  -3.8042239419083E-03
(PID.TID 0000.0001) %MON dynstat_vvel_mean            =  -6.6264977978774E-08
(PID.TID 0000.0001) %MON dynstat_vvel_sd              =   2.0381968226321E-04
(PID.TID 0000.0001) %MON dynstat_vvel_del2            =   5.4432527442045E-07
(PID.TID 0000.0001) %MON dynstat_wvel_max             =   5.3832467314706E-04
(PID.TID 0000.0001) %MON dynstat_wvel_min             =  -5.4065064062062E-04
(PID.TID 0000.0001) %MON dynstat_wvel_mean            =   2.0526102302548E-10
(PID.TID 0000.0001) %MON dynstat_wvel_sd              =   1.1318791931947E-05
(PID.TID 0000.0001) %MON dynstat_wvel_del2            =   4.6898328797970E-08
(PID.TID 0000.0001) %MON dynstat_theta_max            =   1.2000000000000E+00
(PID.TID 0000.0001) %MON dynstat_theta_min            =  -1.0000000000000E+00
(PID.TID 0000.0001) %MON dynstat_theta_mean           =   5.6530012449621E-01
(PID.TID 0000.0001) %MON dynstat_theta_sd             =   8.4901111937927E-01
(PID.TID 0000.0001) %MON dynstat_theta_del2           =   1.5228378335170E-06
(PID.TID 0000.0001) %MON dynstat_salt_max             =   3.4700000000000E+01
(PID.TID 0000.0001) %MON dynstat_salt_min             =   3.4000000000000E+01
(PID.TID 0000.0001) %MON dynstat_salt_mean            =   3.4498033859973E+01
(PID.TID 0000.0001) %MON dynstat_salt_sd              =   2.7013941997870E-01
(PID.TID 0000.0001) %MON dynstat_salt_del2            =   5.9915293509256E-07
(PID.TID 0000.0001) %MON advcfl_uvel_max              =   1.3583707028711E-03
(PID.TID 0000.0001) %MON advcfl_vvel_max              =   1.0741675328227E-03
(PID.TID 0000.0001) %MON advcfl_wvel_max              =   2.7032532031031E-03
(PID.TID 0000.0001) %MON advcfl_W_hf_max              =   2.7032532031031E-03
(PID.TID 0000.0001) %MON pe_b_mean                    =  -6.8248837793315E-01
(PID.TID 0000.0001) %MON ke_max                       =   5.6576230038716E-05
(PID.TID 0000.0001) %MON ke_mean                      =   8.3347142088001E-08
(PID.TID 0000.0001) %MON ke_vol                       =   4.6182963807096E+12
(PID.TID 0000.0001) // =======================================================
(PID.TID 0000.0001) // End MONITOR dynamic field statistics
(PID.TID 0000.0001) // =======================================================
(PID.TID 0000.0001) // =======================================================
(PID.TID 0000.0001) // Begin OBCS MONITOR field statistics
(PID.TID 0000.0001) // =======================================================
(PID.TID 0000.0001) %MON obc_N_vVel_max               =  -8.2648121625585E-08
(PID.TID 0000.0001) %MON obc_N_vVel_min               =  -8.2648121625587E-08
(PID.TID 0000.0001) %MON obc_N_vVel_mean              =  -8.2648121625587E-08
(PID.TID 0000.0001) %MON obc_N_vVel_sd                =  -8.7563560479532E-29
(PID.TID 0000.0001) %MON obc_N_vVel_Int               =  -5.4547760272887E+00
(PID.TID 0000.0001) // =======================================================
(PID.TID 0000.0001) // End OBCS MONITOR field statistics
(PID.TID 0000.0001) // =======================================================
 cg2d: Sum(rhs),rhsMax =   3.01063948709848E+00  4.53047149375186E+02
(PID.TID 0000.0001)      cg2d_init_res =   1.87485611439697E-06
(PID.TID 0000.0001)      cg2d_iters(min,last) =      -1      73
(PID.TID 0000.0001)      cg2d_last_res =   7.43918563824122E-12
(PID.TID 0000.0001) // =======================================================
(PID.TID 0000.0001) // Begin MONITOR dynamic field statistics
(PID.TID 0000.0001) // =======================================================
(PID.TID 0000.0001) %MON time_tsnumber                =                   834
(PID.TID 0000.0001) %MON time_secondsf                =   8.3400000000000E+04
(PID.TID 0000.0001) %MON dynstat_eta_max              =   5.7977829122270E+00
(PID.TID 0000.0001) %MON dynstat_eta_min              =  -1.4174365168144E+01
(PID.TID 0000.0001) %MON dynstat_eta_mean             =  -2.5258548841229E+00
(PID.TID 0000.0001) %MON dynstat_eta_sd               =   4.9415969603437E+00
(PID.TID 0000.0001) %MON dynstat_eta_del2             =   1.9058273480468E-01
(PID.TID 0000.0001) %MON dynstat_uvel_max             =   3.6358629801825E-03
(PID.TID 0000.0001) %MON dynstat_uvel_min             =  -1.3619963974508E-02
(PID.TID 0000.0001) %MON dynstat_uvel_mean            =  -1.1706547944026E-09
(PID.TID 0000.0001) %MON dynstat_uvel_sd              =   3.5811983807275E-04
(PID.TID 0000.0001) %MON dynstat_uvel_del2            =   5.9152314280367E-07
(PID.TID 0000.0001) %MON dynstat_vvel_max             =   1.0762549609367E-02
(PID.TID 0000.0001) %MON dynstat_vvel_min             =  -3.8137995726331E-03
(PID.TID 0000.0001) %MON dynstat_vvel_mean            =  -6.6513423750962E-08
(PID.TID 0000.0001) %MON dynstat_vvel_sd              =   2.0429458713392E-04
(PID.TID 0000.0001) %MON dynstat_vvel_del2            =   5.4538653164365E-07
(PID.TID 0000.0001) %MON dynstat_wvel_max             =   5.3991686400609E-04
(PID.TID 0000.0001) %MON dynstat_wvel_min             =  -5.4247758968229E-04
(PID.TID 0000.0001) %MON dynstat_wvel_mean            =   2.0577118714944E-10
(PID.TID 0000.0001) %MON dynstat_wvel_sd              =   1.1305047787350E-05
(PID.TID 0000.0001) %MON dynstat_wvel_del2            =   4.6723668418370E-08
(PID.TID 0000.0001) %MON dynstat_theta_max            =   1.2000000000000E+00
(PID.TID 0000.0001) %MON dynstat_theta_min            =  -1.0000000000000E+00
(PID.TID 0000.0001) %MON dynstat_theta_mean           =   5.6529974646542E-01
(PID.TID 0000.0001) %MON dynstat_theta_sd             =   8.4901097173236E-01
(PID.TID 0000.0001) %MON dynstat_theta_del2           =   1.5261286357724E-06
(PID.TID 0000.0001) %MON dynstat_salt_max             =   3.4700000000000E+01
(PID.TID 0000.0001) %MON dynstat_salt_min             =   3.4000000000000E+01
(PID.TID 0000.0001) %MON dynstat_salt_mean            =   3.4498033709442E+01
(PID.TID 0000.0001) %MON dynstat_salt_sd              =   2.7013936603726E-01
(PID.TID 0000.0001) %MON dynstat_salt_del2            =   6.0045763578524E-07
(PID.TID 0000.0001) %MON advcfl_uvel_max              =   1.3619963974508E-03
(PID.TID 0000.0001) %MON advcfl_vvel_max              =   1.0762549609367E-03
(PID.TID 0000.0001) %MON advcfl_wvel_max              =   2.7123879484114E-03
(PID.TID 0000.0001) %MON advcfl_W_hf_max              =   2.7123879484114E-03
(PID.TID 0000.0001) %MON pe_b_mean                    =  -6.8248738260070E-01
(PID.TID 0000.0001) %MON ke_max                       =   5.6877637722054E-05
(PID.TID 0000.0001) %MON ke_mean                      =   8.3786955449094E-08
(PID.TID 0000.0001) %MON ke_vol                       =   4.6182964013295E+12
(PID.TID 0000.0001) // =======================================================
(PID.TID 0000.0001) // End MONITOR dynamic field statistics
(PID.TID 0000.0001) // =======================================================
(PID.TID 0000.0001) // =======================================================
(PID.TID 0000.0001) // Begin OBCS MONITOR field statistics
(PID.TID 0000.0001) // =======================================================
(PID.TID 0000.0001) %MON obc_N_vVel_max               =  -8.2914218721704E-08
(PID.TID 0000.0001) %MON obc_N_vVel_min               =  -8.2914218721706E-08
(PID.TID 0000.0001) %MON obc_N_vVel_mean              =  -8.2914218721706E-08
(PID.TID 0000.0001) %MON obc_N_vVel_sd                =  -1.0412963948917E-28
(PID.TID 0000.0001) %MON obc_N_vVel_Int               =  -5.4723384356326E+00
(PID.TID 0000.0001) // =======================================================
(PID.TID 0000.0001) // End OBCS MONITOR field statistics
(PID.TID 0000.0001) // =======================================================
 cg2d: Sum(rhs),rhsMax =   3.01063538188510E+00  4.53047142152246E+02
(PID.TID 0000.0001)      cg2d_init_res =   1.87588252348170E-06
(PID.TID 0000.0001)      cg2d_iters(min,last) =      -1      73
(PID.TID 0000.0001)      cg2d_last_res =   7.45807462046843E-12
(PID.TID 0000.0001) // =======================================================
(PID.TID 0000.0001) // Begin MONITOR dynamic field statistics
(PID.TID 0000.0001) // =======================================================
(PID.TID 0000.0001) %MON time_tsnumber                =                   835
(PID.TID 0000.0001) %MON time_secondsf                =   8.3500000000000E+04
(PID.TID 0000.0001) %MON dynstat_eta_max              =   5.7977856964016E+00
(PID.TID 0000.0001) %MON dynstat_eta_min              =  -1.4174359144820E+01
(PID.TID 0000.0001) %MON dynstat_eta_mean             =  -2.5258513996768E+00
(PID.TID 0000.0001) %MON dynstat_eta_sd               =   4.9415959072713E+00
(PID.TID 0000.0001) %MON dynstat_eta_del2             =   1.9058274268826E-01
(PID.TID 0000.0001) %MON dynstat_uvel_max             =   3.6410224754100E-03
(PID.TID 0000.0001) %MON dynstat_uvel_min             =  -1.3656291451312E-02
(PID.TID 0000.0001) %MON dynstat_uvel_mean            =  -1.1722712045745E-09
(PID.TID 0000.0001) %MON dynstat_uvel_sd              =   3.5910014912911E-04
(PID.TID 0000.0001) %MON dynstat_uvel_del2            =   5.9288055879576E-07
(PID.TID 0000.0001) %MON dynstat_vvel_max             =   1.0783447408410E-02
(PID.TID 0000.0001) %MON dynstat_vvel_min             =  -3.8233921848354E-03
(PID.TID 0000.0001) %MON dynstat_vvel_mean            =  -6.6723088255002E-08
(PID.TID 0000.0001) %MON dynstat_vvel_sd              =   2.0476937414074E-04
(PID.TID 0000.0001) %MON dynstat_vvel_del2            =   5.4643655203617E-07
(PID.TID 0000.0001) %MON dynstat_wvel_max             =   5.4151243540739E-04
(PID.TID 0000.0001) %MON dynstat_wvel_min             =  -5.4431010521467E-04
(PID.TID 0000.0001) %MON dynstat_wvel_mean            =   2.0630159275788E-10
(PID.TID 0000.0001) %MON dynstat_wvel_sd              =   1.1284269594444E-05
(PID.TID 0000.0001) %MON dynstat_wvel_del2            =   4.6485060166298E-08
(PID.TID 0000.0001) %MON dynstat_theta_max            =   1.2000000000000E+00
(PID.TID 0000.0001) %MON dynstat_theta_min            =  -1.0000000000000E+00
(PID.TID 0000.0001) %MON dynstat_theta_mean           =   5.6529936769632E-01
(PID.TID 0000.0001) %MON dynstat_theta_sd             =   8.4901082375999E-01
(PID.TID 0000.0001) %MON dynstat_theta_del2           =   1.5294411697233E-06
(PID.TID 0000.0001) %MON dynstat_salt_max             =   3.4700000000000E+01
(PID.TID 0000.0001) %MON dynstat_salt_min             =   3.4000000000000E+01
(PID.TID 0000.0001) %MON dynstat_salt_mean            =   3.4498033558620E+01
(PID.TID 0000.0001) %MON dynstat_salt_sd              =   2.7013931196445E-01
(PID.TID 0000.0001) %MON dynstat_salt_del2            =   6.0176904679640E-07
(PID.TID 0000.0001) %MON advcfl_uvel_max              =   1.3656291451312E-03
(PID.TID 0000.0001) %MON advcfl_vvel_max              =   1.0783447408410E-03
(PID.TID 0000.0001) %MON advcfl_wvel_max              =   2.7215505260734E-03
(PID.TID 0000.0001) %MON advcfl_W_hf_max              =   2.7215505260734E-03
(PID.TID 0000.0001) %MON pe_b_mean                    =  -6.8248638529231E-01
(PID.TID 0000.0001) %MON ke_max                       =   5.7180428497773E-05
(PID.TID 0000.0001) %MON ke_mean                      =   8.4229002386012E-08
(PID.TID 0000.0001) %MON ke_vol                       =   4.6182964219883E+12
(PID.TID 0000.0001) // =======================================================
(PID.TID 0000.0001) // End MONITOR dynamic field statistics
(PID.TID 0000.0001) // =======================================================
(PID.TID 0000.0001) // =======================================================
(PID.TID 0000.0001) // Begin OBCS MONITOR field statistics
(PID.TID 0000.0001) // =======================================================
(PID.TID 0000.0001) %MON obc_N_vVel_max               =  -8.3143339541205E-08
(PID.TID 0000.0001) %MON obc_N_vVel_min               =  -8.3143339541207E-08
(PID.TID 0000.0001) %MON obc_N_vVel_mean              =  -8.3143339541205E-08
(PID.TID 0000.0001) %MON obc_N_vVel_sd                =   1.5688358818849E-14
(PID.TID 0000.0001) %MON obc_N_vVel_Int               =  -5.4874604097195E+00
(PID.TID 0000.0001) // =======================================================
(PID.TID 0000.0001) // End OBCS MONITOR field statistics
(PID.TID 0000.0001) // =======================================================
 cg2d: Sum(rhs),rhsMax =   3.01063126863341E+00  4.53047134972182E+02
(PID.TID 0000.0001)      cg2d_init_res =   1.87636279776382E-06
(PID.TID 0000.0001)      cg2d_iters(min,last) =      -1      73
(PID.TID 0000.0001)      cg2d_last_res =   7.47684132401785E-12
(PID.TID 0000.0001) // =======================================================
(PID.TID 0000.0001) // Begin MONITOR dynamic field statistics
(PID.TID 0000.0001) // =======================================================
(PID.TID 0000.0001) %MON time_tsnumber                =                   836
(PID.TID 0000.0001) %MON time_secondsf                =   8.3600000000000E+04
(PID.TID 0000.0001) %MON dynstat_eta_max              =   5.7977884820041E+00
(PID.TID 0000.0001) %MON dynstat_eta_min              =  -1.4174353100502E+01
(PID.TID 0000.0001) %MON dynstat_eta_mean             =  -2.5258479087260E+00
(PID.TID 0000.0001) %MON dynstat_eta_sd               =   4.9415948525100E+00
(PID.TID 0000.0001) %MON dynstat_eta_del2             =   1.9058275059836E-01
(PID.TID 0000.0001) %MON dynstat_uvel_max             =   3.6461805377783E-03
(PID.TID 0000.0001) %MON dynstat_uvel_min             =  -1.3692689460049E-02
(PID.TID 0000.0001) %MON dynstat_uvel_mean            =  -1.1741676591162E-09
(PID.TID 0000.0001) %MON dynstat_uvel_sd              =   3.6008356971827E-04
(PID.TID 0000.0001) %MON dynstat_uvel_del2            =   5.9424179937553E-07
(PID.TID 0000.0001) %MON dynstat_vvel_max             =   1.0804368665527E-02
(PID.TID 0000.0001) %MON dynstat_vvel_min             =  -3.8330018230024E-03
(PID.TID 0000.0001) %MON dynstat_vvel_mean            =  -6.6885907751384E-08
(PID.TID 0000.0001) %MON dynstat_vvel_sd              =   2.0524455959523E-04
(PID.TID 0000.0001) %MON dynstat_vvel_del2            =   5.4748240886707E-07
(PID.TID 0000.0001) %MON dynstat_wvel_max             =   5.4311139178560E-04
(PID.TID 0000.0001) %MON dynstat_wvel_min             =  -5.4614819795015E-04
(PID.TID 0000.0001) %MON dynstat_wvel_mean            =   2.0685623455225E-10
(PID.TID 0000.0001) %MON dynstat_wvel_sd              =   1.1259588600322E-05
(PID.TID 0000.0001) %MON dynstat_wvel_del2            =   4.6210479205918E-08
(PID.TID 0000.0001) %MON dynstat_theta_max            =   1.2000000000000E+00
(PID.TID 0000.0001) %MON dynstat_theta_min            =  -1.0000000000000E+00
(PID.TID 0000.0001) %MON dynstat_theta_mean           =   5.6529898818819E-01
(PID.TID 0000.0001) %MON dynstat_theta_sd             =   8.4901067546187E-01
(PID.TID 0000.0001) %MON dynstat_theta_del2           =   1.5327666389715E-06
(PID.TID 0000.0001) %MON dynstat_salt_max             =   3.4700000000000E+01
(PID.TID 0000.0001) %MON dynstat_salt_min             =   3.4000000000000E+01
(PID.TID 0000.0001) %MON dynstat_salt_mean            =   3.4498033407504E+01
(PID.TID 0000.0001) %MON dynstat_salt_sd              =   2.7013925775990E-01
(PID.TID 0000.0001) %MON dynstat_salt_del2            =   6.0308490301270E-07
(PID.TID 0000.0001) %MON advcfl_uvel_max              =   1.3692689460049E-03
(PID.TID 0000.0001) %MON advcfl_vvel_max              =   1.0804368665527E-03
(PID.TID 0000.0001) %MON advcfl_wvel_max              =   2.7307409897507E-03
(PID.TID 0000.0001) %MON advcfl_W_hf_max              =   2.7307409897507E-03
(PID.TID 0000.0001) %MON pe_b_mean                    =  -6.8248538601271E-01
(PID.TID 0000.0001) %MON ke_max                       =   5.7484606886836E-05
(PID.TID 0000.0001) %MON ke_mean                      =   8.4673398095698E-08
(PID.TID 0000.0001) %MON ke_vol                       =   4.6182964426859E+12
(PID.TID 0000.0001) // =======================================================
(PID.TID 0000.0001) // End MONITOR dynamic field statistics
(PID.TID 0000.0001) // =======================================================
(PID.TID 0000.0001) // =======================================================
(PID.TID 0000.0001) // Begin OBCS MONITOR field statistics
(PID.TID 0000.0001) // =======================================================
(PID.TID 0000.0001) %MON obc_N_vVel_max               =  -8.3328194364098E-08
(PID.TID 0000.0001) %MON obc_N_vVel_min               =  -8.3328194364102E-08
(PID.TID 0000.0001) %MON obc_N_vVel_mean              =  -8.3328194364098E-08
(PID.TID 0000.0001) %MON obc_N_vVel_sd                =   2.2008193833336E-14
(PID.TID 0000.0001) %MON obc_N_vVel_Int               =  -5.4996608280305E+00
(PID.TID 0000.0001) // =======================================================
(PID.TID 0000.0001) // End OBCS MONITOR field statistics
(PID.TID 0000.0001) // =======================================================
 cg2d: Sum(rhs),rhsMax =   3.01062714736510E+00  4.53047127838577E+02
(PID.TID 0000.0001)      cg2d_init_res =   1.87661214954494E-06
(PID.TID 0000.0001)      cg2d_iters(min,last) =      -1      73
(PID.TID 0000.0001)      cg2d_last_res =   7.49557305800566E-12
(PID.TID 0000.0001) // =======================================================
(PID.TID 0000.0001) // Begin MONITOR dynamic field statistics
(PID.TID 0000.0001) // =======================================================
(PID.TID 0000.0001) %MON time_tsnumber                =                   837
(PID.TID 0000.0001) %MON time_secondsf                =   8.3700000000000E+04
(PID.TID 0000.0001) %MON dynstat_eta_max              =   5.7977912690592E+00
(PID.TID 0000.0001) %MON dynstat_eta_min              =  -1.4174347035190E+01
(PID.TID 0000.0001) %MON dynstat_eta_mean             =  -2.5258444113085E+00
(PID.TID 0000.0001) %MON dynstat_eta_sd               =   4.9415937960812E+00
(PID.TID 0000.0001) %MON dynstat_eta_del2             =   1.9058275853514E-01
(PID.TID 0000.0001) %MON dynstat_uvel_max             =   3.6513371206333E-03
(PID.TID 0000.0001) %MON dynstat_uvel_min             =  -1.3729158000957E-02
(PID.TID 0000.0001) %MON dynstat_uvel_mean            =  -1.1763901873718E-09
(PID.TID 0000.0001) %MON dynstat_uvel_sd              =   3.6107010091383E-04
(PID.TID 0000.0001) %MON dynstat_uvel_del2            =   5.9560687544857E-07
(PID.TID 0000.0001) %MON dynstat_vvel_max             =   1.0825313320612E-02
(PID.TID 0000.0001) %MON dynstat_vvel_min             =  -3.8426285315545E-03
(PID.TID 0000.0001) %MON dynstat_vvel_mean            =  -6.6993057057159E-08
(PID.TID 0000.0001) %MON dynstat_vvel_sd              =   2.0572070774012E-04
(PID.TID 0000.0001) %MON dynstat_vvel_del2            =   5.4853167966623E-07
(PID.TID 0000.0001) %MON dynstat_wvel_max             =   5.4471373755929E-04
(PID.TID 0000.0001) %MON dynstat_wvel_min             =  -5.4799187875838E-04
(PID.TID 0000.0001) %MON dynstat_wvel_mean            =   2.0743851979008E-10
(PID.TID 0000.0001) %MON dynstat_wvel_sd              =   1.1234442586415E-05
(PID.TID 0000.0001) %MON dynstat_wvel_del2            =   4.5931277897172E-08
(PID.TID 0000.0001) %MON dynstat_theta_max            =   1.2000000000000E+00
(PID.TID 0000.0001) %MON dynstat_theta_min            =  -1.0000000000000E+00
(PID.TID 0000.0001) %MON dynstat_theta_mean           =   5.6529860794139E-01
(PID.TID 0000.0001) %MON dynstat_theta_sd             =   8.4901052682961E-01
(PID.TID 0000.0001) %MON dynstat_theta_del2           =   1.5360959582491E-06
(PID.TID 0000.0001) %MON dynstat_salt_max             =   3.4700000000000E+01
(PID.TID 0000.0001) %MON dynstat_salt_min             =   3.4000000000000E+01
(PID.TID 0000.0001) %MON dynstat_salt_mean            =   3.4498033256096E+01
(PID.TID 0000.0001) %MON dynstat_salt_sd              =   2.7013920342113E-01
(PID.TID 0000.0001) %MON dynstat_salt_del2            =   6.0440286744300E-07
(PID.TID 0000.0001) %MON advcfl_uvel_max              =   1.3729158000957E-03
(PID.TID 0000.0001) %MON advcfl_vvel_max              =   1.0825313320612E-03
(PID.TID 0000.0001) %MON advcfl_wvel_max              =   2.7399593937919E-03
(PID.TID 0000.0001) %MON advcfl_W_hf_max              =   2.7399593937919E-03
(PID.TID 0000.0001) %MON pe_b_mean                    =  -6.8248438476863E-01
(PID.TID 0000.0001) %MON ke_max                       =   5.7790177413269E-05
(PID.TID 0000.0001) %MON ke_mean                      =   8.5120268599849E-08
(PID.TID 0000.0001) %MON ke_vol                       =   4.6182964634222E+12
(PID.TID 0000.0001) // =======================================================
(PID.TID 0000.0001) // End MONITOR dynamic field statistics
(PID.TID 0000.0001) // =======================================================
(PID.TID 0000.0001) // =======================================================
(PID.TID 0000.0001) // Begin OBCS MONITOR field statistics
(PID.TID 0000.0001) // =======================================================
(PID.TID 0000.0001) %MON obc_N_vVel_max               =  -8.3460747149376E-08
(PID.TID 0000.0001) %MON obc_N_vVel_min               =  -8.3460747149377E-08
(PID.TID 0000.0001) %MON obc_N_vVel_mean              =  -8.3460747149377E-08
(PID.TID 0000.0001) %MON obc_N_vVel_sd                =  -3.5735399006512E-28
(PID.TID 0000.0001) %MON obc_N_vVel_Int               =  -5.5084093118589E+00
(PID.TID 0000.0001) // =======================================================
(PID.TID 0000.0001) // End OBCS MONITOR field statistics
(PID.TID 0000.0001) // =======================================================
 cg2d: Sum(rhs),rhsMax =   3.01062301811008E+00  4.53047120755185E+02
(PID.TID 0000.0001)      cg2d_init_res =   1.87696310351550E-06
(PID.TID 0000.0001)      cg2d_iters(min,last) =      -1      73
(PID.TID 0000.0001)      cg2d_last_res =   7.51447315836375E-12
(PID.TID 0000.0001) // =======================================================
(PID.TID 0000.0001) // Begin MONITOR dynamic field statistics
(PID.TID 0000.0001) // =======================================================
(PID.TID 0000.0001) %MON time_tsnumber                =                   838
(PID.TID 0000.0001) %MON time_secondsf                =   8.3800000000000E+04
(PID.TID 0000.0001) %MON dynstat_eta_max              =   5.7977940575504E+00
(PID.TID 0000.0001) %MON dynstat_eta_min              =  -1.4174340948917E+01
(PID.TID 0000.0001) %MON dynstat_eta_mean             =  -2.5258409074705E+00
(PID.TID 0000.0001) %MON dynstat_eta_sd               =   4.9415927380108E+00
(PID.TID 0000.0001) %MON dynstat_eta_del2             =   1.9058276649880E-01
(PID.TID 0000.0001) %MON dynstat_uvel_max             =   3.6564921773525E-03
(PID.TID 0000.0001) %MON dynstat_uvel_min             =  -1.3765697073426E-02
(PID.TID 0000.0001) %MON dynstat_uvel_mean            =  -1.1789795617394E-09
(PID.TID 0000.0001) %MON dynstat_uvel_sd              =   3.6205974366203E-04
(PID.TID 0000.0001) %MON dynstat_uvel_del2            =   5.9697579791365E-07
(PID.TID 0000.0001) %MON dynstat_vvel_max             =   1.0846281313131E-02
(PID.TID 0000.0001) %MON dynstat_vvel_min             =  -3.8522723548455E-03
(PID.TID 0000.0001) %MON dynstat_vvel_mean            =  -6.7035095173072E-08
(PID.TID 0000.0001) %MON dynstat_vvel_sd              =   2.0619837658388E-04
(PID.TID 0000.0001) %MON dynstat_vvel_del2            =   5.4959171549378E-07
(PID.TID 0000.0001) %MON dynstat_wvel_max             =   5.4631947711726E-04
(PID.TID 0000.0001) %MON dynstat_wvel_min             =  -5.4984115855174E-04
(PID.TID 0000.0001) %MON dynstat_wvel_mean            =   2.0805091241492E-10
(PID.TID 0000.0001) %MON dynstat_wvel_sd              =   1.1212251328805E-05
(PID.TID 0000.0001) %MON dynstat_wvel_del2            =   4.5679302958306E-08
(PID.TID 0000.0001) %MON dynstat_theta_max            =   1.2000000000000E+00
(PID.TID 0000.0001) %MON dynstat_theta_min            =  -1.0000000000000E+00
(PID.TID 0000.0001) %MON dynstat_theta_mean           =   5.6529822695699E-01
(PID.TID 0000.0001) %MON dynstat_theta_sd             =   8.4901037785592E-01
(PID.TID 0000.0001) %MON dynstat_theta_del2           =   1.5394205973098E-06
(PID.TID 0000.0001) %MON dynstat_salt_max             =   3.4700000000000E+01
(PID.TID 0000.0001) %MON dynstat_salt_min             =   3.4000000000000E+01
(PID.TID 0000.0001) %MON dynstat_salt_mean            =   3.4498033104396E+01
(PID.TID 0000.0001) %MON dynstat_salt_sd              =   2.7013914894555E-01
(PID.TID 0000.0001) %MON dynstat_salt_del2            =   6.0572074450325E-07
(PID.TID 0000.0001) %MON advcfl_uvel_max              =   1.3765697073426E-03
(PID.TID 0000.0001) %MON advcfl_vvel_max              =   1.0846281313131E-03
(PID.TID 0000.0001) %MON advcfl_wvel_max              =   2.7492057927587E-03
(PID.TID 0000.0001) %MON advcfl_W_hf_max              =   2.7492057927587E-03
(PID.TID 0000.0001) %MON pe_b_mean                    =  -6.8248338156855E-01
(PID.TID 0000.0001) %MON ke_max                       =   5.8097144602450E-05
(PID.TID 0000.0001) %MON ke_mean                      =   8.5569739698632E-08
(PID.TID 0000.0001) %MON ke_vol                       =   4.6182964841968E+12
(PID.TID 0000.0001) // =======================================================
(PID.TID 0000.0001) // End MONITOR dynamic field statistics
(PID.TID 0000.0001) // =======================================================
(PID.TID 0000.0001) // =======================================================
(PID.TID 0000.0001) // Begin OBCS MONITOR field statistics
(PID.TID 0000.0001) // =======================================================
(PID.TID 0000.0001) %MON obc_N_vVel_max               =  -8.3532300782870E-08
(PID.TID 0000.0001) %MON obc_N_vVel_min               =  -8.3532300782872E-08
(PID.TID 0000.0001) %MON obc_N_vVel_mean              =  -8.3532300782870E-08
(PID.TID 0000.0001) %MON obc_N_vVel_sd                =   9.5659743364509E-15
(PID.TID 0000.0001) %MON obc_N_vVel_Int               =  -5.5131318516694E+00
(PID.TID 0000.0001) // =======================================================
(PID.TID 0000.0001) // End OBCS MONITOR field statistics
(PID.TID 0000.0001) // =======================================================
 cg2d: Sum(rhs),rhsMax =   3.01061888090828E+00  4.53047113725875E+02
(PID.TID 0000.0001)      cg2d_init_res =   1.87773183192874E-06
(PID.TID 0000.0001)      cg2d_iters(min,last) =      -1      73
(PID.TID 0000.0001)      cg2d_last_res =   7.53359579689777E-12
(PID.TID 0000.0001) // =======================================================
(PID.TID 0000.0001) // Begin MONITOR dynamic field statistics
(PID.TID 0000.0001) // =======================================================
(PID.TID 0000.0001) %MON time_tsnumber                =                   839
(PID.TID 0000.0001) %MON time_secondsf                =   8.3900000000000E+04
(PID.TID 0000.0001) %MON dynstat_eta_max              =   5.7977968474617E+00
(PID.TID 0000.0001) %MON dynstat_eta_min              =  -1.4174334841725E+01
(PID.TID 0000.0001) %MON dynstat_eta_mean             =  -2.5258373972669E+00
(PID.TID 0000.0001) %MON dynstat_eta_sd               =   4.9415916783287E+00
(PID.TID 0000.0001) %MON dynstat_eta_del2             =   1.9058277448961E-01
(PID.TID 0000.0001) %MON dynstat_uvel_max             =   3.6616456615040E-03
(PID.TID 0000.0001) %MON dynstat_uvel_min             =  -1.3802306675974E-02
(PID.TID 0000.0001) %MON dynstat_uvel_mean            =  -1.1819615999786E-09
(PID.TID 0000.0001) %MON dynstat_uvel_sd              =   3.6305249879897E-04
(PID.TID 0000.0001) %MON dynstat_uvel_del2            =   5.9834857810151E-07
(PID.TID 0000.0001) %MON dynstat_vvel_max             =   1.0867272582227E-02
(PID.TID 0000.0001) %MON dynstat_vvel_min             =  -3.8619333371805E-03
(PID.TID 0000.0001) %MON dynstat_vvel_mean            =  -6.7002114926193E-08
(PID.TID 0000.0001) %MON dynstat_vvel_sd              =   2.0667806594684E-04
(PID.TID 0000.0001) %MON dynstat_vvel_del2            =   5.5066894557680E-07
(PID.TID 0000.0001) %MON dynstat_wvel_max             =   5.4792861483238E-04
(PID.TID 0000.0001) %MON dynstat_wvel_min             =  -5.5169604835054E-04
(PID.TID 0000.0001) %MON dynstat_wvel_mean            =   2.0869482688309E-10
(PID.TID 0000.0001) %MON dynstat_wvel_sd              =   1.1196089362099E-05
(PID.TID 0000.0001) %MON dynstat_wvel_del2            =   4.5483775704927E-08
(PID.TID 0000.0001) %MON dynstat_theta_max            =   1.2000000000000E+00
(PID.TID 0000.0001) %MON dynstat_theta_min            =  -1.0000000000000E+00
(PID.TID 0000.0001) %MON dynstat_theta_mean           =   5.6529784523676E-01
(PID.TID 0000.0001) %MON dynstat_theta_sd             =   8.4901022853667E-01
(PID.TID 0000.0001) %MON dynstat_theta_del2           =   1.5427333478186E-06
(PID.TID 0000.0001) %MON dynstat_salt_max             =   3.4700000000000E+01
(PID.TID 0000.0001) %MON dynstat_salt_min             =   3.4000000000000E+01
(PID.TID 0000.0001) %MON dynstat_salt_mean            =   3.4498032952403E+01
(PID.TID 0000.0001) %MON dynstat_salt_sd              =   2.7013909433193E-01
(PID.TID 0000.0001) %MON dynstat_salt_del2            =   6.0703667784267E-07
(PID.TID 0000.0001) %MON advcfl_uvel_max              =   1.3802306675974E-03
(PID.TID 0000.0001) %MON advcfl_vvel_max              =   1.0867272582227E-03
(PID.TID 0000.0001) %MON advcfl_wvel_max              =   2.7584802417527E-03
(PID.TID 0000.0001) %MON advcfl_W_hf_max              =   2.7584802417527E-03
(PID.TID 0000.0001) %MON pe_b_mean                    =  -6.8248237642283E-01
(PID.TID 0000.0001) %MON ke_max                       =   5.8405512980802E-05
(PID.TID 0000.0001) %MON ke_mean                      =   8.6021926231064E-08
(PID.TID 0000.0001) %MON ke_vol                       =   4.6182965050096E+12
(PID.TID 0000.0001) // =======================================================
(PID.TID 0000.0001) // End MONITOR dynamic field statistics
(PID.TID 0000.0001) // =======================================================
(PID.TID 0000.0001) // =======================================================
(PID.TID 0000.0001) // Begin OBCS MONITOR field statistics
(PID.TID 0000.0001) // =======================================================
(PID.TID 0000.0001) %MON obc_N_vVel_max               =  -8.3533629583125E-08
(PID.TID 0000.0001) %MON obc_N_vVel_min               =  -8.3533629583126E-08
(PID.TID 0000.0001) %MON obc_N_vVel_mean              =  -8.3533629583126E-08
(PID.TID 0000.0001) %MON obc_N_vVel_sd                =  -4.0468564437838E-28
(PID.TID 0000.0001) %MON obc_N_vVel_Int               =  -5.5132195524863E+00
(PID.TID 0000.0001) // =======================================================
(PID.TID 0000.0001) // End OBCS MONITOR field statistics
(PID.TID 0000.0001) // =======================================================
 cg2d: Sum(rhs),rhsMax =   3.01061473581831E+00  4.53047106753742E+02
(PID.TID 0000.0001)      cg2d_init_res =   1.87919184967269E-06
(PID.TID 0000.0001)      cg2d_iters(min,last) =      -1      73
(PID.TID 0000.0001)      cg2d_last_res =   7.55303162791726E-12
(PID.TID 0000.0001) // =======================================================
(PID.TID 0000.0001) // Begin MONITOR dynamic field statistics
(PID.TID 0000.0001) // =======================================================
(PID.TID 0000.0001) %MON time_tsnumber                =                   840
(PID.TID 0000.0001) %MON time_secondsf                =   8.4000000000000E+04
(PID.TID 0000.0001) %MON dynstat_eta_max              =   5.7977996387315E+00
(PID.TID 0000.0001) %MON dynstat_eta_min              =  -1.4174328713688E+01
(PID.TID 0000.0001) %MON dynstat_eta_mean             =  -2.5258338807642E+00
(PID.TID 0000.0001) %MON dynstat_eta_sd               =   4.9415906170661E+00
(PID.TID 0000.0001) %MON dynstat_eta_del2             =   1.9058278250767E-01
(PID.TID 0000.0001) %MON dynstat_uvel_max             =   3.6667975266518E-03
(PID.TID 0000.0001) %MON dynstat_uvel_min             =  -1.3838986806419E-02
(PID.TID 0000.0001) %MON dynstat_uvel_mean            =  -1.1853420822440E-09
(PID.TID 0000.0001) %MON dynstat_uvel_sd              =   3.6404836706852E-04
(PID.TID 0000.0001) %MON dynstat_uvel_del2            =   5.9972522813864E-07
(PID.TID 0000.0001) %MON dynstat_vvel_max             =   1.0888287066446E-02
(PID.TID 0000.0001) %MON dynstat_vvel_min             =  -3.8716115228583E-03
(PID.TID 0000.0001) %MON dynstat_vvel_mean            =  -6.6883898087359E-08
(PID.TID 0000.0001) %MON dynstat_vvel_sd              =   2.0716017260906E-04
(PID.TID 0000.0001) %MON dynstat_vvel_del2            =   5.5176828312732E-07
(PID.TID 0000.0001) %MON dynstat_wvel_max             =   5.4954115506799E-04
(PID.TID 0000.0001) %MON dynstat_wvel_min             =  -5.5355655924348E-04
(PID.TID 0000.0001) %MON dynstat_wvel_mean            =   2.0937061580364E-10
(PID.TID 0000.0001) %MON dynstat_wvel_sd              =   1.1188389178857E-05
(PID.TID 0000.0001) %MON dynstat_wvel_del2            =   4.5368259787128E-08
(PID.TID 0000.0001) %MON dynstat_theta_max            =   1.2000000000000E+00
(PID.TID 0000.0001) %MON dynstat_theta_min            =  -1.0000000000000E+00
(PID.TID 0000.0001) %MON dynstat_theta_mean           =   5.6529746278324E-01
(PID.TID 0000.0001) %MON dynstat_theta_sd             =   8.4901007887109E-01
(PID.TID 0000.0001) %MON dynstat_theta_del2           =   1.5460289521009E-06
(PID.TID 0000.0001) %MON dynstat_salt_max             =   3.4700000000000E+01
(PID.TID 0000.0001) %MON dynstat_salt_min             =   3.4000000000000E+01
(PID.TID 0000.0001) %MON dynstat_salt_mean            =   3.4498032800119E+01
(PID.TID 0000.0001) %MON dynstat_salt_sd              =   2.7013903957989E-01
(PID.TID 0000.0001) %MON dynstat_salt_del2            =   6.0834931278116E-07
(PID.TID 0000.0001) %MON advcfl_uvel_max              =   1.3838986806419E-03
(PID.TID 0000.0001) %MON advcfl_vvel_max              =   1.0888287066446E-03
(PID.TID 0000.0001) %MON advcfl_wvel_max              =   2.7677827962174E-03
(PID.TID 0000.0001) %MON advcfl_W_hf_max              =   2.7677827962174E-03
(PID.TID 0000.0001) %MON pe_b_mean                    =  -6.8248136934410E-01
(PID.TID 0000.0001) %MON ke_max                       =   5.8715287077245E-05
(PID.TID 0000.0001) %MON ke_mean                      =   8.6476922659274E-08
(PID.TID 0000.0001) %MON ke_vol                       =   4.6182965258602E+12
(PID.TID 0000.0001) // =======================================================
(PID.TID 0000.0001) // End MONITOR dynamic field statistics
(PID.TID 0000.0001) // =======================================================
(PID.TID 0000.0001) // =======================================================
(PID.TID 0000.0001) // Begin OBCS MONITOR field statistics
(PID.TID 0000.0001) // =======================================================
(PID.TID 0000.0001) %MON obc_N_vVel_max               =  -8.3455134105665E-08
(PID.TID 0000.0001) %MON obc_N_vVel_min               =  -8.3455134105665E-08
(PID.TID 0000.0001) %MON obc_N_vVel_mean              =  -8.3455134105665E-08
(PID.TID 0000.0001) %MON obc_N_vVel_sd                =   1.2370893888999E-14
(PID.TID 0000.0001) %MON obc_N_vVel_Int               =  -5.5080388509739E+00
(PID.TID 0000.0001) // =======================================================
(PID.TID 0000.0001) // End OBCS MONITOR field statistics
(PID.TID 0000.0001) // =======================================================
 cg2d: Sum(rhs),rhsMax =   3.01061058290301E+00  4.53047099843620E+02
(PID.TID 0000.0001)      cg2d_init_res =   1.88155501772137E-06
(PID.TID 0000.0001)      cg2d_iters(min,last) =      -1      73
(PID.TID 0000.0001)      cg2d_last_res =   7.57291520112060E-12
(PID.TID 0000.0001) // =======================================================
(PID.TID 0000.0001) // Begin MONITOR dynamic field statistics
(PID.TID 0000.0001) // =======================================================
(PID.TID 0000.0001) %MON time_tsnumber                =                   841
(PID.TID 0000.0001) %MON time_secondsf                =   8.4100000000000E+04
(PID.TID 0000.0001) %MON dynstat_eta_max              =   5.7978024312824E+00
(PID.TID 0000.0001) %MON dynstat_eta_min              =  -1.4174322564895E+01
(PID.TID 0000.0001) %MON dynstat_eta_mean             =  -2.5258303580421E+00
(PID.TID 0000.0001) %MON dynstat_eta_sd               =   4.9415895542612E+00
(PID.TID 0000.0001) %MON dynstat_eta_del2             =   1.9058279055323E-01
(PID.TID 0000.0001) %MON dynstat_uvel_max             =   3.6719477265255E-03
(PID.TID 0000.0001) %MON dynstat_uvel_min             =  -1.3875737461658E-02
(PID.TID 0000.0001) %MON dynstat_uvel_mean            =  -1.1891147875275E-09
(PID.TID 0000.0001) %MON dynstat_uvel_sd              =   3.6504734913654E-04
(PID.TID 0000.0001) %MON dynstat_uvel_del2            =   6.0110576111133E-07
(PID.TID 0000.0001) %MON dynstat_vvel_max             =   1.0909324704001E-02
(PID.TID 0000.0001) %MON dynstat_vvel_min             =  -3.8813069561145E-03
(PID.TID 0000.0001) %MON dynstat_vvel_mean            =  -6.6670080452422E-08
(PID.TID 0000.0001) %MON dynstat_vvel_sd              =   2.0764495667232E-04
(PID.TID 0000.0001) %MON dynstat_vvel_del2            =   5.5289268780550E-07
(PID.TID 0000.0001) %MON dynstat_wvel_max             =   5.5115710214143E-04
(PID.TID 0000.0001) %MON dynstat_wvel_min             =  -5.5542270241212E-04
(PID.TID 0000.0001) %MON dynstat_wvel_mean            =   2.1007748024770E-10
(PID.TID 0000.0001) %MON dynstat_wvel_sd              =   1.1190708183253E-05
(PID.TID 0000.0001) %MON dynstat_wvel_del2            =   4.5348117249149E-08
(PID.TID 0000.0001) %MON dynstat_theta_max            =   1.2000000000000E+00
(PID.TID 0000.0001) %MON dynstat_theta_min            =  -1.0000000000000E+00
(PID.TID 0000.0001) %MON dynstat_theta_mean           =   5.6529707959983E-01
(PID.TID 0000.0001) %MON dynstat_theta_sd             =   8.4900992885178E-01
(PID.TID 0000.0001) %MON dynstat_theta_del2           =   1.5493045454107E-06
(PID.TID 0000.0001) %MON dynstat_salt_max             =   3.4700000000000E+01
(PID.TID 0000.0001) %MON dynstat_salt_min             =   3.4000000000000E+01
(PID.TID 0000.0001) %MON dynstat_salt_mean            =   3.4498032647544E+01
(PID.TID 0000.0001) %MON dynstat_salt_sd              =   2.7013898468696E-01
(PID.TID 0000.0001) %MON dynstat_salt_del2            =   6.0965791232086E-07
(PID.TID 0000.0001) %MON advcfl_uvel_max              =   1.3875737461658E-03
(PID.TID 0000.0001) %MON advcfl_vvel_max              =   1.0909324704001E-03
(PID.TID 0000.0001) %MON advcfl_wvel_max              =   2.7771135120606E-03
(PID.TID 0000.0001) %MON advcfl_W_hf_max              =   2.7771135120606E-03
(PID.TID 0000.0001) %MON pe_b_mean                    =  -6.8248036034791E-01
(PID.TID 0000.0001) %MON ke_max                       =   5.9026471420895E-05
(PID.TID 0000.0001) %MON ke_mean                      =   8.6934795850177E-08
(PID.TID 0000.0001) %MON ke_vol                       =   4.6182965467483E+12
(PID.TID 0000.0001) // =======================================================
(PID.TID 0000.0001) // End MONITOR dynamic field statistics
(PID.TID 0000.0001) // =======================================================
(PID.TID 0000.0001) // =======================================================
(PID.TID 0000.0001) // Begin OBCS MONITOR field statistics
(PID.TID 0000.0001) // =======================================================
(PID.TID 0000.0001) %MON obc_N_vVel_max               =  -8.3286982562169E-08
(PID.TID 0000.0001) %MON obc_N_vVel_min               =  -8.3286982562170E-08
(PID.TID 0000.0001) %MON obc_N_vVel_mean              =  -8.3286982562170E-08
(PID.TID 0000.0001) %MON obc_N_vVel_sd                =  -2.8004562135346E-28
(PID.TID 0000.0001) %MON obc_N_vVel_Int               =  -5.4969408491032E+00
(PID.TID 0000.0001) // =======================================================
(PID.TID 0000.0001) // End OBCS MONITOR field statistics
(PID.TID 0000.0001) // =======================================================
 cg2d: Sum(rhs),rhsMax =   3.01060642224234E+00  4.53047092999454E+02
(PID.TID 0000.0001)      cg2d_init_res =   1.88493487162512E-06
(PID.TID 0000.0001)      cg2d_iters(min,last) =      -1      73
(PID.TID 0000.0001)      cg2d_last_res =   7.59339604594980E-12
(PID.TID 0000.0001) // =======================================================
(PID.TID 0000.0001) // Begin MONITOR dynamic field statistics
(PID.TID 0000.0001) // =======================================================
(PID.TID 0000.0001) %MON time_tsnumber                =                   842
(PID.TID 0000.0001) %MON time_secondsf                =   8.4200000000000E+04
(PID.TID 0000.0001) %MON dynstat_eta_max              =   5.7978052250080E+00
(PID.TID 0000.0001) %MON dynstat_eta_min              =  -1.4174316395462E+01
(PID.TID 0000.0001) %MON dynstat_eta_mean             =  -2.5258268291896E+00
(PID.TID 0000.0001) %MON dynstat_eta_sd               =   4.9415884899562E+00
(PID.TID 0000.0001) %MON dynstat_eta_del2             =   1.9058279862657E-01
(PID.TID 0000.0001) %MON dynstat_uvel_max             =   3.6770962148367E-03
(PID.TID 0000.0001) %MON dynstat_uvel_min             =  -1.3912558637818E-02
(PID.TID 0000.0001) %MON dynstat_uvel_mean            =  -1.1932720340729E-09
(PID.TID 0000.0001) %MON dynstat_uvel_sd              =   3.6604944560008E-04
(PID.TID 0000.0001) %MON dynstat_uvel_del2            =   6.0249019116800E-07
(PID.TID 0000.0001) %MON dynstat_vvel_max             =   1.0930385432574E-02
(PID.TID 0000.0001) %MON dynstat_vvel_min             =  -3.8910196812489E-03
(PID.TID 0000.0001) %MON dynstat_vvel_mean            =  -6.6350341903701E-08
(PID.TID 0000.0001) %MON dynstat_vvel_sd              =   2.0813252206885E-04
(PID.TID 0000.0001) %MON dynstat_vvel_del2            =   5.5404292408295E-07
(PID.TID 0000.0001) %MON dynstat_wvel_max             =   5.5277646037744E-04
(PID.TID 0000.0001) %MON dynstat_wvel_min             =  -5.5729448910046E-04
(PID.TID 0000.0001) %MON dynstat_wvel_mean            =   2.1081328761580E-10
(PID.TID 0000.0001) %MON dynstat_wvel_sd              =   1.1203587393481E-05
(PID.TID 0000.0001) %MON dynstat_wvel_del2            =   4.5428849129877E-08
(PID.TID 0000.0001) %MON dynstat_theta_max            =   1.2000000000000E+00
(PID.TID 0000.0001) %MON dynstat_theta_min            =  -1.0000000000000E+00
(PID.TID 0000.0001) %MON dynstat_theta_mean           =   5.6529669569017E-01
(PID.TID 0000.0001) %MON dynstat_theta_sd             =   8.4900977846578E-01
(PID.TID 0000.0001) %MON dynstat_theta_del2           =   1.5525598559721E-06
(PID.TID 0000.0001) %MON dynstat_salt_max             =   3.4700000000000E+01
(PID.TID 0000.0001) %MON dynstat_salt_min             =   3.4000000000000E+01
(PID.TID 0000.0001) %MON dynstat_salt_mean            =   3.4498032494679E+01
(PID.TID 0000.0001) %MON dynstat_salt_sd              =   2.7013892964903E-01
(PID.TID 0000.0001) %MON dynstat_salt_del2            =   6.1096241020988E-07
(PID.TID 0000.0001) %MON advcfl_uvel_max              =   1.3912558637818E-03
(PID.TID 0000.0001) %MON advcfl_vvel_max              =   1.0930385432574E-03
(PID.TID 0000.0001) %MON advcfl_wvel_max              =   2.7864724455023E-03
(PID.TID 0000.0001) %MON advcfl_W_hf_max              =   2.7864724455023E-03
(PID.TID 0000.0001) %MON pe_b_mean                    =  -6.8247934945175E-01
(PID.TID 0000.0001) %MON ke_max                       =   5.9339070542633E-05
(PID.TID 0000.0001) %MON ke_mean                      =   8.7395580698739E-08
(PID.TID 0000.0001) %MON ke_vol                       =   4.6182965676732E+12
(PID.TID 0000.0001) // =======================================================
(PID.TID 0000.0001) // End MONITOR dynamic field statistics
(PID.TID 0000.0001) // =======================================================
(PID.TID 0000.0001) // =======================================================
(PID.TID 0000.0001) // Begin OBCS MONITOR field statistics
(PID.TID 0000.0001) // =======================================================
(PID.TID 0000.0001) %MON obc_N_vVel_max               =  -8.3019267180480E-08
(PID.TID 0000.0001) %MON obc_N_vVel_min               =  -8.3019267180482E-08
(PID.TID 0000.0001) %MON obc_N_vVel_mean              =  -8.3019267180482E-08
(PID.TID 0000.0001) %MON obc_N_vVel_sd                =  -1.1911799668837E-28
(PID.TID 0000.0001) %MON obc_N_vVel_Int               =  -5.4792716339118E+00
(PID.TID 0000.0001) // =======================================================
(PID.TID 0000.0001) // End OBCS MONITOR field statistics
(PID.TID 0000.0001) // =======================================================
 cg2d: Sum(rhs),rhsMax =   3.01060225392791E+00  4.53047086225290E+02
(PID.TID 0000.0001)      cg2d_init_res =   1.88933229596308E-06
(PID.TID 0000.0001)      cg2d_iters(min,last) =      -1      73
(PID.TID 0000.0001)      cg2d_last_res =   7.61442976237313E-12
(PID.TID 0000.0001) // =======================================================
(PID.TID 0000.0001) // Begin MONITOR dynamic field statistics
(PID.TID 0000.0001) // =======================================================
(PID.TID 0000.0001) %MON time_tsnumber                =                   843
(PID.TID 0000.0001) %MON time_secondsf                =   8.4300000000000E+04
(PID.TID 0000.0001) %MON dynstat_eta_max              =   5.7978080197746E+00
(PID.TID 0000.0001) %MON dynstat_eta_min              =  -1.4174310205523E+01
(PID.TID 0000.0001) %MON dynstat_eta_mean             =  -2.5258232943062E+00
(PID.TID 0000.0001) %MON dynstat_eta_sd               =   4.9415874241922E+00
(PID.TID 0000.0001) %MON dynstat_eta_del2             =   1.9058280672779E-01
(PID.TID 0000.0001) %MON dynstat_uvel_max             =   3.6822429454642E-03
(PID.TID 0000.0001) %MON dynstat_uvel_min             =  -1.3949450330129E-02
(PID.TID 0000.0001) %MON dynstat_uvel_mean            =  -1.1977987482447E-09
(PID.TID 0000.0001) %MON dynstat_uvel_sd              =   3.6705465699007E-04
(PID.TID 0000.0001) %MON dynstat_uvel_del2            =   6.0387853328319E-07
(PID.TID 0000.0001) %MON dynstat_vvel_max             =   1.0951469189255E-02
(PID.TID 0000.0001) %MON dynstat_vvel_min             =  -3.9007497425327E-03
(PID.TID 0000.0001) %MON dynstat_vvel_mean            =  -6.5914587782928E-08
(PID.TID 0000.0001) %MON dynstat_vvel_sd              =   2.0862281273331E-04
(PID.TID 0000.0001) %MON dynstat_vvel_del2            =   5.5521753524423E-07
(PID.TID 0000.0001) %MON dynstat_wvel_max             =   5.5439923406185E-04
(PID.TID 0000.0001) %MON dynstat_wvel_min             =  -5.5917193064109E-04
(PID.TID 0000.0001) %MON dynstat_wvel_mean            =   2.1157470993244E-10
(PID.TID 0000.0001) %MON dynstat_wvel_sd              =   1.1226519320299E-05
(PID.TID 0000.0001) %MON dynstat_wvel_del2            =   4.5605606887002E-08
(PID.TID 0000.0001) %MON dynstat_theta_max            =   1.2000000000000E+00
(PID.TID 0000.0001) %MON dynstat_theta_min            =  -1.0000000000000E+00
(PID.TID 0000.0001) %MON dynstat_theta_mean           =   5.6529631105812E-01
(PID.TID 0000.0001) %MON dynstat_theta_sd             =   8.4900962769734E-01
(PID.TID 0000.0001) %MON dynstat_theta_del2           =   1.5557965436045E-06
(PID.TID 0000.0001) %MON dynstat_salt_max             =   3.4700000000000E+01
(PID.TID 0000.0001) %MON dynstat_salt_min             =   3.4000000000000E+01
(PID.TID 0000.0001) %MON dynstat_salt_mean            =   3.4498032341526E+01
(PID.TID 0000.0001) %MON dynstat_salt_sd              =   2.7013887446111E-01
(PID.TID 0000.0001) %MON dynstat_salt_del2            =   6.1226338299473E-07
(PID.TID 0000.0001) %MON advcfl_uvel_max              =   1.3949450330129E-03
(PID.TID 0000.0001) %MON advcfl_vvel_max              =   1.0951469189255E-03
(PID.TID 0000.0001) %MON advcfl_wvel_max              =   2.7958596532054E-03
(PID.TID 0000.0001) %MON advcfl_W_hf_max              =   2.7958596532054E-03
(PID.TID 0000.0001) %MON pe_b_mean                    =  -6.8247833667478E-01
(PID.TID 0000.0001) %MON ke_max                       =   5.9653088973360E-05
(PID.TID 0000.0001) %MON ke_mean                      =   8.7859278954386E-08
(PID.TID 0000.0001) %MON ke_vol                       =   4.6182965886346E+12
(PID.TID 0000.0001) // =======================================================
(PID.TID 0000.0001) // End MONITOR dynamic field statistics
(PID.TID 0000.0001) // =======================================================
(PID.TID 0000.0001) // =======================================================
(PID.TID 0000.0001) // Begin OBCS MONITOR field statistics
(PID.TID 0000.0001) // =======================================================
(PID.TID 0000.0001) %MON obc_N_vVel_max               =  -8.2642181319763E-08
(PID.TID 0000.0001) %MON obc_N_vVel_min               =  -8.2642181319763E-08
(PID.TID 0000.0001) %MON obc_N_vVel_mean              =  -8.2642181319763E-08
(PID.TID 0000.0001) %MON obc_N_vVel_sd                =   5.2545343925733E-15
(PID.TID 0000.0001) %MON obc_N_vVel_Int               =  -5.4543839671044E+00
(PID.TID 0000.0001) // =======================================================
(PID.TID 0000.0001) // End OBCS MONITOR field statistics
(PID.TID 0000.0001) // =======================================================
 cg2d: Sum(rhs),rhsMax =   3.01059807806537E+00  4.53047079525045E+02
(PID.TID 0000.0001)      cg2d_init_res =   1.89466870008507E-06
(PID.TID 0000.0001)      cg2d_iters(min,last) =      -1      73
(PID.TID 0000.0001)      cg2d_last_res =   7.63608183759203E-12
(PID.TID 0000.0001) // =======================================================
(PID.TID 0000.0001) // Begin MONITOR dynamic field statistics
(PID.TID 0000.0001) // =======================================================
(PID.TID 0000.0001) %MON time_tsnumber                =                   844
(PID.TID 0000.0001) %MON time_secondsf                =   8.4400000000000E+04
(PID.TID 0000.0001) %MON dynstat_eta_max              =   5.7978108154349E+00
(PID.TID 0000.0001) %MON dynstat_eta_min              =  -1.4174303995240E+01
(PID.TID 0000.0001) %MON dynstat_eta_mean             =  -2.5258197535023E+00
(PID.TID 0000.0001) %MON dynstat_eta_sd               =   4.9415863570139E+00
(PID.TID 0000.0001) %MON dynstat_eta_del2             =   1.9058281485705E-01
(PID.TID 0000.0001) %MON dynstat_uvel_max             =   3.6873878723185E-03
(PID.TID 0000.0001) %MON dynstat_uvel_min             =  -1.3986412533083E-02
(PID.TID 0000.0001) %MON dynstat_uvel_mean            =  -1.2026771601714E-09
(PID.TID 0000.0001) %MON dynstat_uvel_sd              =   3.6806298376899E-04
(PID.TID 0000.0001) %MON dynstat_uvel_del2            =   6.0527080343362E-07
(PID.TID 0000.0001) %MON dynstat_vvel_max             =   1.0972575910695E-02
(PID.TID 0000.0001) %MON dynstat_vvel_min             =  -3.9104971843038E-03
(PID.TID 0000.0001) %MON dynstat_vvel_mean            =  -6.5353111875008E-08
(PID.TID 0000.0001) %MON dynstat_vvel_sd              =   2.0911562436820E-04
(PID.TID 0000.0001) %MON dynstat_vvel_del2            =   5.5641303095988E-07
(PID.TID 0000.0001) %MON dynstat_wvel_max             =   5.5602542746577E-04
(PID.TID 0000.0001) %MON dynstat_wvel_min             =  -5.6105503843296E-04
(PID.TID 0000.0001) %MON dynstat_wvel_mean            =   2.1235729673665E-10
(PID.TID 0000.0001) %MON dynstat_wvel_sd              =   1.1258027988189E-05
(PID.TID 0000.0001) %MON dynstat_wvel_del2            =   4.5863958263620E-08
(PID.TID 0000.0001) %MON dynstat_theta_max            =   1.2000000000000E+00
(PID.TID 0000.0001) %MON dynstat_theta_min            =  -1.0000000000000E+00
(PID.TID 0000.0001) %MON dynstat_theta_mean           =   5.6529592570775E-01
(PID.TID 0000.0001) %MON dynstat_theta_sd             =   8.4900947653522E-01
(PID.TID 0000.0001) %MON dynstat_theta_del2           =   1.5590196799381E-06
(PID.TID 0000.0001) %MON dynstat_salt_max             =   3.4700000000000E+01
(PID.TID 0000.0001) %MON dynstat_salt_min             =   3.4000000000000E+01
(PID.TID 0000.0001) %MON dynstat_salt_mean            =   3.4498032188085E+01
(PID.TID 0000.0001) %MON dynstat_salt_sd              =   2.7013881911946E-01
(PID.TID 0000.0001) %MON dynstat_salt_del2            =   6.1356198401595E-07
(PID.TID 0000.0001) %MON advcfl_uvel_max              =   1.3986412533083E-03
(PID.TID 0000.0001) %MON advcfl_vvel_max              =   1.0972575910695E-03
(PID.TID 0000.0001) %MON advcfl_wvel_max              =   2.8052751921648E-03
(PID.TID 0000.0001) %MON advcfl_W_hf_max              =   2.8052751921648E-03
(PID.TID 0000.0001) %MON pe_b_mean                    =  -6.8247732203840E-01
(PID.TID 0000.0001) %MON ke_max                       =   5.9968531245450E-05
(PID.TID 0000.0001) %MON ke_mean                      =   8.8325861288562E-08
(PID.TID 0000.0001) %MON ke_vol                       =   4.6182966096318E+12
(PID.TID 0000.0001) // =======================================================
(PID.TID 0000.0001) // End MONITOR dynamic field statistics
(PID.TID 0000.0001) // =======================================================
(PID.TID 0000.0001) // =======================================================
(PID.TID 0000.0001) // Begin OBCS MONITOR field statistics
(PID.TID 0000.0001) // =======================================================
(PID.TID 0000.0001) %MON obc_N_vVel_max               =  -8.2146181362618E-08
(PID.TID 0000.0001) %MON obc_N_vVel_min               =  -8.2146181362619E-08
(PID.TID 0000.0001) %MON obc_N_vVel_mean              =  -8.2146181362619E-08
(PID.TID 0000.0001) %MON obc_N_vVel_sd                =  -1.1832913578315E-28
(PID.TID 0000.0001) %MON obc_N_vVel_Int               =  -5.4216479699328E+00
(PID.TID 0000.0001) // =======================================================
(PID.TID 0000.0001) // End OBCS MONITOR field statistics
(PID.TID 0000.0001) // =======================================================
 cg2d: Sum(rhs),rhsMax =   3.01059389477608E+00  4.53047072902556E+02
(PID.TID 0000.0001)      cg2d_init_res =   1.90075992962488E-06
(PID.TID 0000.0001)      cg2d_iters(min,last) =      -1      73
(PID.TID 0000.0001)      cg2d_last_res =   7.65830817246826E-12
(PID.TID 0000.0001) // =======================================================
(PID.TID 0000.0001) // Begin MONITOR dynamic field statistics
(PID.TID 0000.0001) // =======================================================
(PID.TID 0000.0001) %MON time_tsnumber                =                   845
(PID.TID 0000.0001) %MON time_secondsf                =   8.4500000000000E+04
(PID.TID 0000.0001) %MON dynstat_eta_max              =   5.7978136117981E+00
(PID.TID 0000.0001) %MON dynstat_eta_min              =  -1.4174297764781E+01
(PID.TID 0000.0001) %MON dynstat_eta_mean             =  -2.5258162069011E+00
(PID.TID 0000.0001) %MON dynstat_eta_sd               =   4.9415852884704E+00
(PID.TID 0000.0001) %MON dynstat_eta_del2             =   1.9058282301447E-01
(PID.TID 0000.0001) %MON dynstat_uvel_max             =   3.6925309493885E-03
(PID.TID 0000.0001) %MON dynstat_uvel_min             =  -1.4023445240177E-02
(PID.TID 0000.0001) %MON dynstat_uvel_mean            =  -1.2078825599641E-09
(PID.TID 0000.0001) %MON dynstat_uvel_sd              =   3.6907442632773E-04
(PID.TID 0000.0001) %MON dynstat_uvel_del2            =   6.0666701726585E-07
(PID.TID 0000.0001) %MON dynstat_vvel_max             =   1.0993705532838E-02
(PID.TID 0000.0001) %MON dynstat_vvel_min             =  -3.9202620509347E-03
(PID.TID 0000.0001) %MON dynstat_vvel_mean            =  -6.4656741393156E-08
(PID.TID 0000.0001) %MON dynstat_vvel_sd              =   2.0961063034592E-04
(PID.TID 0000.0001) %MON dynstat_vvel_del2            =   5.5762426703101E-07
(PID.TID 0000.0001) %MON dynstat_wvel_max             =   5.5765504483223E-04
(PID.TID 0000.0001) %MON dynstat_wvel_min             =  -5.6294382394525E-04
(PID.TID 0000.0001) %MON dynstat_wvel_mean            =   2.1315554281951E-10
(PID.TID 0000.0001) %MON dynstat_wvel_sd              =   1.1295848948193E-05
(PID.TID 0000.0001) %MON dynstat_wvel_del2            =   4.6181759252860E-08
(PID.TID 0000.0001) %MON dynstat_theta_max            =   1.2000000000000E+00
(PID.TID 0000.0001) %MON dynstat_theta_min            =  -1.0000000000000E+00
(PID.TID 0000.0001) %MON dynstat_theta_mean           =   5.6529553964337E-01
(PID.TID 0000.0001) %MON dynstat_theta_sd             =   8.4900932497201E-01
(PID.TID 0000.0001) %MON dynstat_theta_del2           =   1.5622355194923E-06
(PID.TID 0000.0001) %MON dynstat_salt_max             =   3.4700000000000E+01
(PID.TID 0000.0001) %MON dynstat_salt_min             =   3.4000000000000E+01
(PID.TID 0000.0001) %MON dynstat_salt_mean            =   3.4498032034358E+01
(PID.TID 0000.0001) %MON dynstat_salt_sd              =   2.7013876362175E-01
(PID.TID 0000.0001) %MON dynstat_salt_del2            =   6.1485981361886E-07
(PID.TID 0000.0001) %MON advcfl_uvel_max              =   1.4023445240177E-03
(PID.TID 0000.0001) %MON advcfl_vvel_max              =   1.0993705532838E-03
(PID.TID 0000.0001) %MON advcfl_wvel_max              =   2.8147191197263E-03
(PID.TID 0000.0001) %MON advcfl_W_hf_max              =   2.8147191197263E-03
(PID.TID 0000.0001) %MON pe_b_mean                    =  -6.8247630556664E-01
(PID.TID 0000.0001) %MON ke_max                       =   6.0285401890145E-05
(PID.TID 0000.0001) %MON ke_mean                      =   8.8795272353831E-08
(PID.TID 0000.0001) %MON ke_vol                       =   4.6182966306642E+12
(PID.TID 0000.0001) // =======================================================
(PID.TID 0000.0001) // End MONITOR dynamic field statistics
(PID.TID 0000.0001) // =======================================================
(PID.TID 0000.0001) // =======================================================
(PID.TID 0000.0001) // Begin OBCS MONITOR field statistics
(PID.TID 0000.0001) // =======================================================
(PID.TID 0000.0001) %MON obc_N_vVel_max               =  -8.1522124085662E-08
(PID.TID 0000.0001) %MON obc_N_vVel_min               =  -8.1522124085664E-08
(PID.TID 0000.0001) %MON obc_N_vVel_mean              =  -8.1522124085662E-08
(PID.TID 0000.0001) %MON obc_N_vVel_sd                =   1.0841599276764E-14
(PID.TID 0000.0001) %MON obc_N_vVel_Int               =  -5.3804601896537E+00
(PID.TID 0000.0001) // =======================================================
(PID.TID 0000.0001) // End OBCS MONITOR field statistics
(PID.TID 0000.0001) // =======================================================
 cg2d: Sum(rhs),rhsMax =   3.01058970419394E+00  4.53047066361482E+02
(PID.TID 0000.0001)      cg2d_init_res =   1.90735997886729E-06
(PID.TID 0000.0001)      cg2d_iters(min,last) =      -1      73
(PID.TID 0000.0001)      cg2d_last_res =   7.68119177800533E-12
(PID.TID 0000.0001) // =======================================================
(PID.TID 0000.0001) // Begin MONITOR dynamic field statistics
(PID.TID 0000.0001) // =======================================================
(PID.TID 0000.0001) %MON time_tsnumber                =                   846
(PID.TID 0000.0001) %MON time_secondsf                =   8.4600000000000E+04
(PID.TID 0000.0001) %MON dynstat_eta_max              =   5.7978164086665E+00
(PID.TID 0000.0001) %MON dynstat_eta_min              =  -1.4174291514344E+01
(PID.TID 0000.0001) %MON dynstat_eta_mean             =  -2.5258126546355E+00
(PID.TID 0000.0001) %MON dynstat_eta_sd               =   4.9415842186122E+00
(PID.TID 0000.0001) %MON dynstat_eta_del2             =   1.9058283120010E-01
(PID.TID 0000.0001) %MON dynstat_uvel_max             =   3.6976721307891E-03
(PID.TID 0000.0001) %MON dynstat_uvel_min             =  -1.4060548444128E-02
(PID.TID 0000.0001) %MON dynstat_uvel_mean            =  -1.2133821220970E-09
(PID.TID 0000.0001) %MON dynstat_uvel_sd              =   3.7008898497599E-04
(PID.TID 0000.0001) %MON dynstat_uvel_del2            =   6.0806719002961E-07
(PID.TID 0000.0001) %MON dynstat_vvel_max             =   1.1014857991097E-02
(PID.TID 0000.0001) %MON dynstat_vvel_min             =  -3.9300443868777E-03
(PID.TID 0000.0001) %MON dynstat_vvel_mean            =  -6.3816962324139E-08
(PID.TID 0000.0001) %MON dynstat_vvel_sd              =   2.1010741881195E-04
(PID.TID 0000.0001) %MON dynstat_vvel_del2            =   5.5884497537197E-07
(PID.TID 0000.0001) %MON dynstat_wvel_max             =   5.5928809039178E-04
(PID.TID 0000.0001) %MON dynstat_wvel_min             =  -5.6483829868528E-04
(PID.TID 0000.0001) %MON dynstat_wvel_mean            =   2.1396302122973E-10
(PID.TID 0000.0001) %MON dynstat_wvel_sd              =   1.1337184494267E-05
(PID.TID 0000.0001) %MON dynstat_wvel_del2            =   4.6531799526556E-08
(PID.TID 0000.0001) %MON dynstat_theta_max            =   1.2000000000000E+00
(PID.TID 0000.0001) %MON dynstat_theta_min            =  -1.0000000000000E+00
(PID.TID 0000.0001) %MON dynstat_theta_mean           =   5.6529515286912E-01
(PID.TID 0000.0001) %MON dynstat_theta_sd             =   8.4900917300631E-01
(PID.TID 0000.0001) %MON dynstat_theta_del2           =   1.5654514273795E-06
(PID.TID 0000.0001) %MON dynstat_salt_max             =   3.4700000000000E+01
(PID.TID 0000.0001) %MON dynstat_salt_min             =   3.4000000000000E+01
(PID.TID 0000.0001) %MON dynstat_salt_mean            =   3.4498031880345E+01
(PID.TID 0000.0001) %MON dynstat_salt_sd              =   2.7013870796737E-01
(PID.TID 0000.0001) %MON dynstat_salt_del2            =   6.1615876573867E-07
(PID.TID 0000.0001) %MON advcfl_uvel_max              =   1.4060548444128E-03
(PID.TID 0000.0001) %MON advcfl_vvel_max              =   1.1014857991097E-03
(PID.TID 0000.0001) %MON advcfl_wvel_max              =   2.8241914934264E-03
(PID.TID 0000.0001) %MON advcfl_W_hf_max              =   2.8241914934264E-03
(PID.TID 0000.0001) %MON pe_b_mean                    =  -6.8247528728524E-01
(PID.TID 0000.0001) %MON ke_max                       =   6.0603705439720E-05
(PID.TID 0000.0001) %MON ke_mean                      =   8.9267438266483E-08
(PID.TID 0000.0001) %MON ke_vol                       =   4.6182966517310E+12
(PID.TID 0000.0001) // =======================================================
(PID.TID 0000.0001) // End MONITOR dynamic field statistics
(PID.TID 0000.0001) // =======================================================
(PID.TID 0000.0001) // =======================================================
(PID.TID 0000.0001) // Begin OBCS MONITOR field statistics
(PID.TID 0000.0001) // =======================================================
(PID.TID 0000.0001) %MON obc_N_vVel_max               =  -8.0761435711960E-08
(PID.TID 0000.0001) %MON obc_N_vVel_min               =  -8.0761435711962E-08
(PID.TID 0000.0001) %MON obc_N_vVel_mean              =  -8.0761435711962E-08
(PID.TID 0000.0001) %MON obc_N_vVel_sd                =  -4.2992919334545E-28
(PID.TID 0000.0001) %MON obc_N_vVel_Int               =  -5.3302547569895E+00
(PID.TID 0000.0001) // =======================================================
(PID.TID 0000.0001) // End OBCS MONITOR field statistics
(PID.TID 0000.0001) // =======================================================
 cg2d: Sum(rhs),rhsMax =   3.01058550646391E+00  4.53047059905358E+02
(PID.TID 0000.0001)      cg2d_init_res =   1.91417951927238E-06
(PID.TID 0000.0001)      cg2d_iters(min,last) =      -1      73
(PID.TID 0000.0001)      cg2d_last_res =   7.70466554971952E-12
(PID.TID 0000.0001) // =======================================================
(PID.TID 0000.0001) // Begin MONITOR dynamic field statistics
(PID.TID 0000.0001) // =======================================================
(PID.TID 0000.0001) %MON time_tsnumber                =                   847
(PID.TID 0000.0001) %MON time_secondsf                =   8.4700000000000E+04
(PID.TID 0000.0001) %MON dynstat_eta_max              =   5.7978192058084E+00
(PID.TID 0000.0001) %MON dynstat_eta_min              =  -1.4174285244137E+01
(PID.TID 0000.0001) %MON dynstat_eta_mean             =  -2.5258090968466E+00
(PID.TID 0000.0001) %MON dynstat_eta_sd               =   4.9415831474909E+00
(PID.TID 0000.0001) %MON dynstat_eta_del2             =   1.9058283941397E-01
(PID.TID 0000.0001) %MON dynstat_uvel_max             =   3.7028113705571E-03
(PID.TID 0000.0001) %MON dynstat_uvel_min             =  -1.4097722136729E-02
(PID.TID 0000.0001) %MON dynstat_uvel_mean            =  -1.2191370298597E-09
(PID.TID 0000.0001) %MON dynstat_uvel_sd              =   3.7110665993306E-04
(PID.TID 0000.0001) %MON dynstat_uvel_del2            =   6.0947133604189E-07
(PID.TID 0000.0001) %MON dynstat_vvel_max             =   1.1036033220140E-02
(PID.TID 0000.0001) %MON dynstat_vvel_min             =  -3.9398442366618E-03
(PID.TID 0000.0001) %MON dynstat_vvel_mean            =  -6.2826034000791E-08
(PID.TID 0000.0001) %MON dynstat_vvel_sd              =   2.1060553715780E-04
(PID.TID 0000.0001) %MON dynstat_vvel_del2            =   5.6006839071730E-07
(PID.TID 0000.0001) %MON dynstat_wvel_max             =   5.6092456835094E-04
(PID.TID 0000.0001) %MON dynstat_wvel_min             =  -5.6673847415464E-04
(PID.TID 0000.0001) %MON dynstat_wvel_mean            =   2.1477270768775E-10
(PID.TID 0000.0001) %MON dynstat_wvel_sd              =   1.1379001733536E-05
(PID.TID 0000.0001) %MON dynstat_wvel_del2            =   4.6884804585327E-08
(PID.TID 0000.0001) %MON dynstat_theta_max            =   1.2000000000000E+00
(PID.TID 0000.0001) %MON dynstat_theta_min            =  -1.0000000000000E+00
(PID.TID 0000.0001) %MON dynstat_theta_mean           =   5.6529476538881E-01
(PID.TID 0000.0001) %MON dynstat_theta_sd             =   8.4900902063735E-01
(PID.TID 0000.0001) %MON dynstat_theta_del2           =   1.5686751946316E-06
(PID.TID 0000.0001) %MON dynstat_salt_max             =   3.4700000000000E+01
(PID.TID 0000.0001) %MON dynstat_salt_min             =   3.4000000000000E+01
(PID.TID 0000.0001) %MON dynstat_salt_mean            =   3.4498031726049E+01
(PID.TID 0000.0001) %MON dynstat_salt_sd              =   2.7013865215602E-01
(PID.TID 0000.0001) %MON dynstat_salt_del2            =   6.1746084142306E-07
(PID.TID 0000.0001) %MON advcfl_uvel_max              =   1.4097722136729E-03
(PID.TID 0000.0001) %MON advcfl_vvel_max              =   1.1036033220140E-03
(PID.TID 0000.0001) %MON advcfl_wvel_max              =   2.8336923707732E-03
(PID.TID 0000.0001) %MON advcfl_W_hf_max              =   2.8336923707732E-03
(PID.TID 0000.0001) %MON pe_b_mean                    =  -6.8247426722146E-01
(PID.TID 0000.0001) %MON ke_max                       =   6.0923446425289E-05
(PID.TID 0000.0001) %MON ke_mean                      =   8.9742275750009E-08
(PID.TID 0000.0001) %MON ke_vol                       =   4.6182966728315E+12
(PID.TID 0000.0001) // =======================================================
(PID.TID 0000.0001) // End MONITOR dynamic field statistics
(PID.TID 0000.0001) // =======================================================
(PID.TID 0000.0001) // =======================================================
(PID.TID 0000.0001) // Begin OBCS MONITOR field statistics
(PID.TID 0000.0001) // =======================================================
(PID.TID 0000.0001) %MON obc_N_vVel_max               =  -7.9856219307194E-08
(PID.TID 0000.0001) %MON obc_N_vVel_min               =  -7.9856219307195E-08
(PID.TID 0000.0001) %MON obc_N_vVel_mean              =  -7.9856219307195E-08
(PID.TID 0000.0001) %MON obc_N_vVel_sd                =  -1.9879294811569E-28
(PID.TID 0000.0001) %MON obc_N_vVel_Int               =  -5.2705104742749E+00
(PID.TID 0000.0001) // =======================================================
(PID.TID 0000.0001) // End OBCS MONITOR field statistics
(PID.TID 0000.0001) // =======================================================
 cg2d: Sum(rhs),rhsMax =   3.01058130174088E+00  4.53047053537497E+02
(PID.TID 0000.0001)      cg2d_init_res =   1.92091590517994E-06
(PID.TID 0000.0001)      cg2d_iters(min,last) =      -1      73
(PID.TID 0000.0001)      cg2d_last_res =   7.72869979529483E-12
(PID.TID 0000.0001) // =======================================================
(PID.TID 0000.0001) // Begin MONITOR dynamic field statistics
(PID.TID 0000.0001) // =======================================================
(PID.TID 0000.0001) %MON time_tsnumber                =                   848
(PID.TID 0000.0001) %MON time_secondsf                =   8.4800000000000E+04
(PID.TID 0000.0001) %MON dynstat_eta_max              =   5.7978220029759E+00
(PID.TID 0000.0001) %MON dynstat_eta_min              =  -1.4174278954387E+01
(PID.TID 0000.0001) %MON dynstat_eta_mean             =  -2.5258055336829E+00
(PID.TID 0000.0001) %MON dynstat_eta_sd               =   4.9415820751644E+00
(PID.TID 0000.0001) %MON dynstat_eta_del2             =   1.9058284765631E-01
(PID.TID 0000.0001) %MON dynstat_uvel_max             =   3.7079486229175E-03
(PID.TID 0000.0001) %MON dynstat_uvel_min             =  -1.4134966308932E-02
(PID.TID 0000.0001) %MON dynstat_uvel_mean            =  -1.2251041366105E-09
(PID.TID 0000.0001) %MON dynstat_uvel_sd              =   3.7212745131894E-04
(PID.TID 0000.0001) %MON dynstat_uvel_del2            =   6.1087946815190E-07
(PID.TID 0000.0001) %MON dynstat_vvel_max             =   1.1057231154069E-02
(PID.TID 0000.0001) %MON dynstat_vvel_min             =  -3.9496616449011E-03
(PID.TID 0000.0001) %MON dynstat_vvel_mean            =  -6.1677094262564E-08
(PID.TID 0000.0001) %MON dynstat_vvel_sd              =   2.1110453936163E-04
(PID.TID 0000.0001) %MON dynstat_vvel_del2            =   5.6128791135439E-07
(PID.TID 0000.0001) %MON dynstat_wvel_max             =   5.6256448288813E-04
(PID.TID 0000.0001) %MON dynstat_wvel_min             =  -5.6864436196785E-04
(PID.TID 0000.0001) %MON dynstat_wvel_mean            =   2.1557674931835E-10
(PID.TID 0000.0001) %MON dynstat_wvel_sd              =   1.1418339404246E-05
(PID.TID 0000.0001) %MON dynstat_wvel_del2            =   4.7212399627315E-08
(PID.TID 0000.0001) %MON dynstat_theta_max            =   1.2000000000000E+00
(PID.TID 0000.0001) %MON dynstat_theta_min            =  -1.0000000000000E+00
(PID.TID 0000.0001) %MON dynstat_theta_mean           =   5.6529437720570E-01
(PID.TID 0000.0001) %MON dynstat_theta_sd             =   8.4900886786599E-01
(PID.TID 0000.0001) %MON dynstat_theta_del2           =   1.5719142813058E-06
(PID.TID 0000.0001) %MON dynstat_salt_max             =   3.4700000000000E+01
(PID.TID 0000.0001) %MON dynstat_salt_min             =   3.4000000000000E+01
(PID.TID 0000.0001) %MON dynstat_salt_mean            =   3.4498031571469E+01
(PID.TID 0000.0001) %MON dynstat_salt_sd              =   2.7013859618815E-01
(PID.TID 0000.0001) %MON dynstat_salt_del2            =   6.1876795659716E-07
(PID.TID 0000.0001) %MON advcfl_uvel_max              =   1.4134966308932E-03
(PID.TID 0000.0001) %MON advcfl_vvel_max              =   1.1057231154069E-03
(PID.TID 0000.0001) %MON advcfl_wvel_max              =   2.8432218098393E-03
(PID.TID 0000.0001) %MON advcfl_W_hf_max              =   2.8432218098393E-03
(PID.TID 0000.0001) %MON pe_b_mean                    =  -6.8247324540406E-01
(PID.TID 0000.0001) %MON ke_max                       =   6.1244629378218E-05
(PID.TID 0000.0001) %MON ke_mean                      =   9.0219702016725E-08
(PID.TID 0000.0001) %MON ke_vol                       =   4.6182966939647E+12
(PID.TID 0000.0001) // =======================================================
(PID.TID 0000.0001) // End MONITOR dynamic field statistics
(PID.TID 0000.0001) // =======================================================
(PID.TID 0000.0001) // =======================================================
(PID.TID 0000.0001) // Begin OBCS MONITOR field statistics
(PID.TID 0000.0001) // =======================================================
(PID.TID 0000.0001) %MON obc_N_vVel_max               =  -7.8799330628953E-08
(PID.TID 0000.0001) %MON obc_N_vVel_min               =  -7.8799330628954E-08
(PID.TID 0000.0001) %MON obc_N_vVel_mean              =  -7.8799330628954E-08
(PID.TID 0000.0001) %MON obc_N_vVel_sd                =   1.5383701491069E-15
(PID.TID 0000.0001) %MON obc_N_vVel_Int               =  -5.2007558215109E+00
(PID.TID 0000.0001) // =======================================================
(PID.TID 0000.0001) // End OBCS MONITOR field statistics
(PID.TID 0000.0001) // =======================================================
 cg2d: Sum(rhs),rhsMax =   3.01057709019089E+00  4.53047047261010E+02
(PID.TID 0000.0001)      cg2d_init_res =   1.92727915240607E-06
(PID.TID 0000.0001)      cg2d_iters(min,last) =      -1      73
(PID.TID 0000.0001)      cg2d_last_res =   7.75320100227558E-12
(PID.TID 0000.0001) // =======================================================
(PID.TID 0000.0001) // Begin MONITOR dynamic field statistics
(PID.TID 0000.0001) // =======================================================
(PID.TID 0000.0001) %MON time_tsnumber                =                   849
(PID.TID 0000.0001) %MON time_secondsf                =   8.4900000000000E+04
(PID.TID 0000.0001) %MON dynstat_eta_max              =   5.7978247998984E+00
(PID.TID 0000.0001) %MON dynstat_eta_min              =  -1.4174272645331E+01
(PID.TID 0000.0001) %MON dynstat_eta_mean             =  -2.5258019653012E+00
(PID.TID 0000.0001) %MON dynstat_eta_sd               =   4.9415810016904E+00
(PID.TID 0000.0001) %MON dynstat_eta_del2             =   1.9058285592727E-01
(PID.TID 0000.0001) %MON dynstat_uvel_max             =   3.7130838422321E-03
(PID.TID 0000.0001) %MON dynstat_uvel_min             =  -1.4172280950772E-02
(PID.TID 0000.0001) %MON dynstat_uvel_mean            =  -1.2312419560735E-09
(PID.TID 0000.0001) %MON dynstat_uvel_sd              =   3.7315135915068E-04
(PID.TID 0000.0001) %MON dynstat_uvel_del2            =   6.1229159730016E-07
(PID.TID 0000.0001) %MON dynstat_vvel_max             =   1.1078451726450E-02
(PID.TID 0000.0001) %MON dynstat_vvel_min             =  -3.9594966562744E-03
(PID.TID 0000.0001) %MON dynstat_vvel_mean            =  -6.0364241999120E-08
(PID.TID 0000.0001) %MON dynstat_vvel_sd              =   2.1160403151889E-04
(PID.TID 0000.0001) %MON dynstat_vvel_del2            =   5.6249772946186E-07
(PID.TID 0000.0001) %MON dynstat_wvel_max             =   5.6420783817843E-04
(PID.TID 0000.0001) %MON dynstat_wvel_min             =  -5.7055597376890E-04
(PID.TID 0000.0001) %MON dynstat_wvel_mean            =   2.1636694802694E-10
(PID.TID 0000.0001) %MON dynstat_wvel_sd              =   1.1452592434636E-05
(PID.TID 0000.0001) %MON dynstat_wvel_del2            =   4.7489731691391E-08
(PID.TID 0000.0001) %MON dynstat_theta_max            =   1.2000000000000E+00
(PID.TID 0000.0001) %MON dynstat_theta_min            =  -1.0000000000000E+00
(PID.TID 0000.0001) %MON dynstat_theta_mean           =   5.6529398832259E-01
(PID.TID 0000.0001) %MON dynstat_theta_sd             =   8.4900871469499E-01
(PID.TID 0000.0001) %MON dynstat_theta_del2           =   1.5751751103162E-06
(PID.TID 0000.0001) %MON dynstat_salt_max             =   3.4700000000000E+01
(PID.TID 0000.0001) %MON dynstat_salt_min             =   3.4000000000000E+01
(PID.TID 0000.0001) %MON dynstat_salt_mean            =   3.4498031416606E+01
(PID.TID 0000.0001) %MON dynstat_salt_sd              =   2.7013854006427E-01
(PID.TID 0000.0001) %MON dynstat_salt_del2            =   6.2008176063340E-07
(PID.TID 0000.0001) %MON advcfl_uvel_max              =   1.4172280950772E-03
(PID.TID 0000.0001) %MON advcfl_vvel_max              =   1.1078451726450E-03
(PID.TID 0000.0001) %MON advcfl_wvel_max              =   2.8527798688445E-03
(PID.TID 0000.0001) %MON advcfl_W_hf_max              =   2.8527798688445E-03
(PID.TID 0000.0001) %MON pe_b_mean                    =  -6.8247222186317E-01
(PID.TID 0000.0001) %MON ke_max                       =   6.1567258828869E-05
(PID.TID 0000.0001) %MON ke_mean                      =   9.0699644411348E-08
(PID.TID 0000.0001) %MON ke_vol                       =   4.6182967151299E+12
(PID.TID 0000.0001) // =======================================================
(PID.TID 0000.0001) // End MONITOR dynamic field statistics
(PID.TID 0000.0001) // =======================================================
(PID.TID 0000.0001) // =======================================================
(PID.TID 0000.0001) // Begin OBCS MONITOR field statistics
(PID.TID 0000.0001) // =======================================================
(PID.TID 0000.0001) %MON obc_N_vVel_max               =  -7.7584485253013E-08
(PID.TID 0000.0001) %MON obc_N_vVel_min               =  -7.7584485253015E-08
(PID.TID 0000.0001) %MON obc_N_vVel_mean              =  -7.7584485253013E-08
(PID.TID 0000.0001) %MON obc_N_vVel_sd                =   1.3673332971056E-14
(PID.TID 0000.0001) %MON obc_N_vVel_Int               =  -5.1205760266989E+00
(PID.TID 0000.0001) // =======================================================
(PID.TID 0000.0001) // End OBCS MONITOR field statistics
(PID.TID 0000.0001) // =======================================================
 cg2d: Sum(rhs),rhsMax =   3.01057287198900E+00  4.53047041078748E+02
(PID.TID 0000.0001)      cg2d_init_res =   1.93301932492857E-06
(PID.TID 0000.0001)      cg2d_iters(min,last) =      -1      73
(PID.TID 0000.0001)      cg2d_last_res =   7.77812699596960E-12
(PID.TID 0000.0001) // =======================================================
(PID.TID 0000.0001) // Begin MONITOR dynamic field statistics
(PID.TID 0000.0001) // =======================================================
(PID.TID 0000.0001) %MON time_tsnumber                =                   850
(PID.TID 0000.0001) %MON time_secondsf                =   8.5000000000000E+04
(PID.TID 0000.0001) %MON dynstat_eta_max              =   5.7978275962908E+00
(PID.TID 0000.0001) %MON dynstat_eta_min              =  -1.4174266317212E+01
(PID.TID 0000.0001) %MON dynstat_eta_mean             =  -2.5257983918640E+00
(PID.TID 0000.0001) %MON dynstat_eta_sd               =   4.9415799271241E+00
(PID.TID 0000.0001) %MON dynstat_eta_del2             =   1.9058286422675E-01
(PID.TID 0000.0001) %MON dynstat_uvel_max             =   3.7182169826355E-03
(PID.TID 0000.0001) %MON dynstat_uvel_min             =  -1.4209666051467E-02
(PID.TID 0000.0001) %MON dynstat_uvel_mean            =  -1.2375078051313E-09
(PID.TID 0000.0001) %MON dynstat_uvel_sd              =   3.7417838334481E-04
(PID.TID 0000.0001) %MON dynstat_uvel_del2            =   6.1370773221148E-07
(PID.TID 0000.0001) %MON dynstat_vvel_max             =   1.1099694869920E-02
(PID.TID 0000.0001) %MON dynstat_vvel_min             =  -3.9693493155566E-03
(PID.TID 0000.0001) %MON dynstat_vvel_mean            =  -5.8882588536292E-08
(PID.TID 0000.0001) %MON dynstat_vvel_sd              =   2.1210371118157E-04
(PID.TID 0000.0001) %MON dynstat_vvel_del2            =   5.6369337132914E-07
(PID.TID 0000.0001) %MON dynstat_wvel_max             =   5.6585463838948E-04
(PID.TID 0000.0001) %MON dynstat_wvel_min             =  -5.7247332127663E-04
(PID.TID 0000.0001) %MON dynstat_wvel_mean            =   2.1713478634699E-10
(PID.TID 0000.0001) %MON dynstat_wvel_sd              =   1.1479749404285E-05
(PID.TID 0000.0001) %MON dynstat_wvel_del2            =   4.7697559644691E-08
(PID.TID 0000.0001) %MON dynstat_theta_max            =   1.2000000000000E+00
(PID.TID 0000.0001) %MON dynstat_theta_min            =  -1.0000000000000E+00
(PID.TID 0000.0001) %MON dynstat_theta_mean           =   5.6529359874162E-01
(PID.TID 0000.0001) %MON dynstat_theta_sd             =   8.4900856112571E-01
(PID.TID 0000.0001) %MON dynstat_theta_del2           =   1.5784625159139E-06
(PID.TID 0000.0001) %MON dynstat_salt_max             =   3.4700000000000E+01
(PID.TID 0000.0001) %MON dynstat_salt_min             =   3.4000000000000E+01
(PID.TID 0000.0001) %MON dynstat_salt_mean            =   3.4498031261462E+01
(PID.TID 0000.0001) %MON dynstat_salt_sd              =   2.7013848378487E-01
(PID.TID 0000.0001) %MON dynstat_salt_del2            =   6.2140348388327E-07
(PID.TID 0000.0001) %MON advcfl_uvel_max              =   1.4209666051467E-03
(PID.TID 0000.0001) %MON advcfl_vvel_max              =   1.1099694869920E-03
(PID.TID 0000.0001) %MON advcfl_wvel_max              =   2.8623666063832E-03
(PID.TID 0000.0001) %MON advcfl_W_hf_max              =   2.8623666063832E-03
(PID.TID 0000.0001) %MON pe_b_mean                    =  -6.8247119662975E-01
(PID.TID 0000.0001) %MON ke_max                       =   6.1891339307289E-05
(PID.TID 0000.0001) %MON ke_mean                      =   9.1182048882397E-08
(PID.TID 0000.0001) %MON ke_vol                       =   4.6182967363261E+12
(PID.TID 0000.0001) // =======================================================
(PID.TID 0000.0001) // End MONITOR dynamic field statistics
(PID.TID 0000.0001) // =======================================================
(PID.TID 0000.0001) // =======================================================
(PID.TID 0000.0001) // Begin OBCS MONITOR field statistics
(PID.TID 0000.0001) // =======================================================
(PID.TID 0000.0001) %MON obc_N_vVel_max               =  -7.6206304638122E-08
(PID.TID 0000.0001) %MON obc_N_vVel_min               =  -7.6206304638122E-08
(PID.TID 0000.0001) %MON obc_N_vVel_mean              =  -7.6206304638122E-08
(PID.TID 0000.0001) %MON obc_N_vVel_sd                =   5.6871167663467E-15
(PID.TID 0000.0001) %MON obc_N_vVel_Int               =  -5.0296161061161E+00
(PID.TID 0000.0001) // =======================================================
(PID.TID 0000.0001) // End OBCS MONITOR field statistics
(PID.TID 0000.0001) // =======================================================
 cg2d: Sum(rhs),rhsMax =   3.01056864731604E+00  4.53047034993321E+02
(PID.TID 0000.0001)      cg2d_init_res =   1.93794878077419E-06
(PID.TID 0000.0001)      cg2d_iters(min,last) =      -1      73
(PID.TID 0000.0001)      cg2d_last_res =   7.80335797425365E-12
(PID.TID 0000.0001) // =======================================================
(PID.TID 0000.0001) // Begin MONITOR dynamic field statistics
(PID.TID 0000.0001) // =======================================================
(PID.TID 0000.0001) %MON time_tsnumber                =                   851
(PID.TID 0000.0001) %MON time_secondsf                =   8.5100000000000E+04
(PID.TID 0000.0001) %MON dynstat_eta_max              =   5.7978303918474E+00
(PID.TID 0000.0001) %MON dynstat_eta_min              =  -1.4174259970285E+01
(PID.TID 0000.0001) %MON dynstat_eta_mean             =  -2.5257948135377E+00
(PID.TID 0000.0001) %MON dynstat_eta_sd               =   4.9415788515191E+00
(PID.TID 0000.0001) %MON dynstat_eta_del2             =   1.9058287255467E-01
(PID.TID 0000.0001) %MON dynstat_uvel_max             =   3.7233479986387E-03
(PID.TID 0000.0001) %MON dynstat_uvel_min             =  -1.4247121599304E-02
(PID.TID 0000.0001) %MON dynstat_uvel_mean            =  -1.2438550003507E-09
(PID.TID 0000.0001) %MON dynstat_uvel_sd              =   3.7520852372520E-04
(PID.TID 0000.0001) %MON dynstat_uvel_del2            =   6.1512787923131E-07
(PID.TID 0000.0001) %MON dynstat_vvel_max             =   1.1120960516665E-02
(PID.TID 0000.0001) %MON dynstat_vvel_min             =  -3.9792196676336E-03
(PID.TID 0000.0001) %MON dynstat_vvel_mean            =  -5.7228281364529E-08
(PID.TID 0000.0001) %MON dynstat_vvel_sd              =   2.1260339682256E-04
(PID.TID 0000.0001) %MON dynstat_vvel_del2            =   5.6487209779045E-07
(PID.TID 0000.0001) %MON dynstat_wvel_max             =   5.6750488768600E-04
(PID.TID 0000.0001) %MON dynstat_wvel_min             =  -5.7439641628495E-04
(PID.TID 0000.0001) %MON dynstat_wvel_mean            =   2.1787153205002E-10
(PID.TID 0000.0001) %MON dynstat_wvel_sd              =   1.1498565371822E-05
(PID.TID 0000.0001) %MON dynstat_wvel_del2            =   4.7823719480314E-08
(PID.TID 0000.0001) %MON dynstat_theta_max            =   1.2000000000000E+00
(PID.TID 0000.0001) %MON dynstat_theta_min            =  -1.0000000000000E+00
(PID.TID 0000.0001) %MON dynstat_theta_mean           =   5.6529320846401E-01
(PID.TID 0000.0001) %MON dynstat_theta_sd             =   8.4900840715589E-01
(PID.TID 0000.0001) %MON dynstat_theta_del2           =   1.5817793165108E-06
(PID.TID 0000.0001) %MON dynstat_salt_max             =   3.4700000000000E+01
(PID.TID 0000.0001) %MON dynstat_salt_min             =   3.4000000000000E+01
(PID.TID 0000.0001) %MON dynstat_salt_mean            =   3.4498031106035E+01
(PID.TID 0000.0001) %MON dynstat_salt_sd              =   2.7013842734928E-01
(PID.TID 0000.0001) %MON dynstat_salt_del2            =   6.2273385844822E-07
(PID.TID 0000.0001) %MON advcfl_uvel_max              =   1.4247121599304E-03
(PID.TID 0000.0001) %MON advcfl_vvel_max              =   1.1120960516665E-03
(PID.TID 0000.0001) %MON advcfl_wvel_max              =   2.8719820814247E-03
(PID.TID 0000.0001) %MON advcfl_W_hf_max              =   2.8719820814247E-03
(PID.TID 0000.0001) %MON pe_b_mean                    =  -6.8247016973512E-01
(PID.TID 0000.0001) %MON ke_max                       =   6.2216875342458E-05
(PID.TID 0000.0001) %MON ke_mean                      =   9.1666886475866E-08
(PID.TID 0000.0001) %MON ke_vol                       =   4.6182967575523E+12
(PID.TID 0000.0001) // =======================================================
(PID.TID 0000.0001) // End MONITOR dynamic field statistics
(PID.TID 0000.0001) // =======================================================
(PID.TID 0000.0001) // =======================================================
(PID.TID 0000.0001) // Begin OBCS MONITOR field statistics
(PID.TID 0000.0001) // =======================================================
(PID.TID 0000.0001) %MON obc_N_vVel_max               =  -7.4660357215381E-08
(PID.TID 0000.0001) %MON obc_N_vVel_min               =  -7.4660357215382E-08
(PID.TID 0000.0001) %MON obc_N_vVel_mean              =  -7.4660357215381E-08
(PID.TID 0000.0001) %MON obc_N_vVel_sd                =   4.6151104473206E-15
(PID.TID 0000.0001) %MON obc_N_vVel_Int               =  -4.9275835762152E+00
(PID.TID 0000.0001) // =======================================================
(PID.TID 0000.0001) // End OBCS MONITOR field statistics
(PID.TID 0000.0001) // =======================================================
 cg2d: Sum(rhs),rhsMax =   3.01056441703323E+00  4.53047028905307E+02
(PID.TID 0000.0001)      cg2d_init_res =   1.94196603540100E-06
(PID.TID 0000.0001)      cg2d_iters(min,last) =      -1      73
(PID.TID 0000.0001)      cg2d_last_res =   7.82889789107637E-12
(PID.TID 0000.0001) // =======================================================
(PID.TID 0000.0001) // Begin MONITOR dynamic field statistics
(PID.TID 0000.0001) // =======================================================
(PID.TID 0000.0001) %MON time_tsnumber                =                   852
(PID.TID 0000.0001) %MON time_secondsf                =   8.5200000000000E+04
(PID.TID 0000.0001) %MON dynstat_eta_max              =   5.7978331864955E+00
(PID.TID 0000.0001) %MON dynstat_eta_min              =  -1.4174253604809E+01
(PID.TID 0000.0001) %MON dynstat_eta_mean             =  -2.5257912304906E+00
(PID.TID 0000.0001) %MON dynstat_eta_sd               =   4.9415777749359E+00
(PID.TID 0000.0001) %MON dynstat_eta_del2             =   1.9058288091116E-01
(PID.TID 0000.0001) %MON dynstat_uvel_max             =   3.7284768445840E-03
(PID.TID 0000.0001) %MON dynstat_uvel_min             =  -1.4284647581774E-02
(PID.TID 0000.0001) %MON dynstat_uvel_mean            =  -1.2502364065002E-09
(PID.TID 0000.0001) %MON dynstat_uvel_sd              =   3.7624178004449E-04
(PID.TID 0000.0001) %MON dynstat_uvel_del2            =   6.1655204243830E-07
(PID.TID 0000.0001) %MON dynstat_vvel_max             =   1.1142248598094E-02
(PID.TID 0000.0001) %MON dynstat_vvel_min             =  -3.9891077574650E-03
(PID.TID 0000.0001) %MON dynstat_vvel_mean            =  -5.5398506748605E-08
(PID.TID 0000.0001) %MON dynstat_vvel_sd              =   2.1310304475482E-04
(PID.TID 0000.0001) %MON dynstat_vvel_del2            =   5.6603312974587E-07
(PID.TID 0000.0001) %MON dynstat_wvel_max             =   5.6915859019012E-04
(PID.TID 0000.0001) %MON dynstat_wvel_min             =  -5.7632527069207E-04
(PID.TID 0000.0001) %MON dynstat_wvel_mean            =   2.1856849111172E-10
(PID.TID 0000.0001) %MON dynstat_wvel_sd              =   1.1508659561230E-05
(PID.TID 0000.0001) %MON dynstat_wvel_del2            =   4.7863937512987E-08
(PID.TID 0000.0001) %MON dynstat_theta_max            =   1.2000000000000E+00
(PID.TID 0000.0001) %MON dynstat_theta_min            =  -1.0000000000000E+00
(PID.TID 0000.0001) %MON dynstat_theta_mean           =   5.6529281748989E-01
(PID.TID 0000.0001) %MON dynstat_theta_sd             =   8.4900825278070E-01
(PID.TID 0000.0001) %MON dynstat_theta_del2           =   1.5851261510932E-06
(PID.TID 0000.0001) %MON dynstat_salt_max             =   3.4700000000000E+01
(PID.TID 0000.0001) %MON dynstat_salt_min             =   3.4000000000000E+01
(PID.TID 0000.0001) %MON dynstat_salt_mean            =   3.4498030950326E+01
(PID.TID 0000.0001) %MON dynstat_salt_sd              =   2.7013837075591E-01
(PID.TID 0000.0001) %MON dynstat_salt_del2            =   6.2407304450097E-07
(PID.TID 0000.0001) %MON advcfl_uvel_max              =   1.4284647581774E-03
(PID.TID 0000.0001) %MON advcfl_vvel_max              =   1.1142248598094E-03
(PID.TID 0000.0001) %MON advcfl_wvel_max              =   2.8816263534603E-03
(PID.TID 0000.0001) %MON advcfl_W_hf_max              =   2.8816263534603E-03
(PID.TID 0000.0001) %MON pe_b_mean                    =  -6.8246914121107E-01
(PID.TID 0000.0001) %MON ke_max                       =   6.2543871462909E-05
(PID.TID 0000.0001) %MON ke_mean                      =   9.2154157249743E-08
(PID.TID 0000.0001) %MON ke_vol                       =   4.6182967788076E+12
(PID.TID 0000.0001) // =======================================================
(PID.TID 0000.0001) // End MONITOR dynamic field statistics
(PID.TID 0000.0001) // =======================================================
(PID.TID 0000.0001) // =======================================================
(PID.TID 0000.0001) // Begin OBCS MONITOR field statistics
(PID.TID 0000.0001) // =======================================================
(PID.TID 0000.0001) %MON obc_N_vVel_max               =  -7.2943199039476E-08
(PID.TID 0000.0001) %MON obc_N_vVel_min               =  -7.2943199039477E-08
(PID.TID 0000.0001) %MON obc_N_vVel_mean              =  -7.2943199039477E-08
(PID.TID 0000.0001) %MON obc_N_vVel_sd                =  -9.7029891342184E-29
(PID.TID 0000.0001) %MON obc_N_vVel_Int               =  -4.8142511366055E+00
(PID.TID 0000.0001) // =======================================================
(PID.TID 0000.0001) // End OBCS MONITOR field statistics
(PID.TID 0000.0001) // =======================================================
 cg2d: Sum(rhs),rhsMax =   3.01056018137846E+00  4.53047022809960E+02
(PID.TID 0000.0001)      cg2d_init_res =   1.94505590750555E-06
(PID.TID 0000.0001)      cg2d_iters(min,last) =      -1      73
(PID.TID 0000.0001)      cg2d_last_res =   7.85467297932472E-12
(PID.TID 0000.0001) // =======================================================
(PID.TID 0000.0001) // Begin MONITOR dynamic field statistics
(PID.TID 0000.0001) // =======================================================
(PID.TID 0000.0001) %MON time_tsnumber                =                   853
(PID.TID 0000.0001) %MON time_secondsf                =   8.5300000000000E+04
(PID.TID 0000.0001) %MON dynstat_eta_max              =   5.7978359796562E+00
(PID.TID 0000.0001) %MON dynstat_eta_min              =  -1.4174247221050E+01
(PID.TID 0000.0001) %MON dynstat_eta_mean             =  -2.5257876428958E+00
(PID.TID 0000.0001) %MON dynstat_eta_sd               =   4.9415766974360E+00
(PID.TID 0000.0001) %MON dynstat_eta_del2             =   1.9058288929648E-01
(PID.TID 0000.0001) %MON dynstat_uvel_max             =   3.7336034750179E-03
(PID.TID 0000.0001) %MON dynstat_uvel_min             =  -1.4322243985416E-02
(PID.TID 0000.0001) %MON dynstat_uvel_mean            =  -1.2566046562112E-09
(PID.TID 0000.0001) %MON dynstat_uvel_sd              =   3.7727815200810E-04
(PID.TID 0000.0001) %MON dynstat_uvel_del2            =   6.1798022383347E-07
(PID.TID 0000.0001) %MON dynstat_vvel_max             =   1.1163559045129E-02
(PID.TID 0000.0001) %MON dynstat_vvel_min             =  -3.9990136300476E-03
(PID.TID 0000.0001) %MON dynstat_vvel_mean            =  -5.3391471423650E-08
(PID.TID 0000.0001) %MON dynstat_vvel_sd              =   2.1360275213574E-04
(PID.TID 0000.0001) %MON dynstat_vvel_del2            =   5.6717768078072E-07
(PID.TID 0000.0001) %MON dynstat_wvel_max             =   5.7081575002440E-04
(PID.TID 0000.0001) %MON dynstat_wvel_min             =  -5.7825989640649E-04
(PID.TID 0000.0001) %MON dynstat_wvel_mean            =   2.1921735852720E-10
(PID.TID 0000.0001) %MON dynstat_wvel_sd              =   1.1510533530698E-05
(PID.TID 0000.0001) %MON dynstat_wvel_del2            =   4.7821998332310E-08
(PID.TID 0000.0001) %MON dynstat_theta_max            =   1.2000000000000E+00
(PID.TID 0000.0001) %MON dynstat_theta_min            =  -1.0000000000000E+00
(PID.TID 0000.0001) %MON dynstat_theta_mean           =   5.6529242581877E-01
(PID.TID 0000.0001) %MON dynstat_theta_sd             =   8.4900809799792E-01
(PID.TID 0000.0001) %MON dynstat_theta_del2           =   1.5885014819494E-06
(PID.TID 0000.0001) %MON dynstat_salt_max             =   3.4700000000000E+01
(PID.TID 0000.0001) %MON dynstat_salt_min             =   3.4000000000000E+01
(PID.TID 0000.0001) %MON dynstat_salt_mean            =   3.4498030794336E+01
(PID.TID 0000.0001) %MON dynstat_salt_sd              =   2.7013831400383E-01
(PID.TID 0000.0001) %MON dynstat_salt_del2            =   6.2542064188287E-07
(PID.TID 0000.0001) %MON advcfl_uvel_max              =   1.4322243985416E-03
(PID.TID 0000.0001) %MON advcfl_vvel_max              =   1.1163559045129E-03
(PID.TID 0000.0001) %MON advcfl_wvel_max              =   2.8912994820324E-03
(PID.TID 0000.0001) %MON advcfl_W_hf_max              =   2.8912994820324E-03
(PID.TID 0000.0001) %MON pe_b_mean                    =  -6.8246811109025E-01
(PID.TID 0000.0001) %MON ke_max                       =   6.2872332195688E-05
(PID.TID 0000.0001) %MON ke_mean                      =   9.2643891268901E-08
(PID.TID 0000.0001) %MON ke_vol                       =   4.6182968000909E+12
(PID.TID 0000.0001) // =======================================================
(PID.TID 0000.0001) // End MONITOR dynamic field statistics
(PID.TID 0000.0001) // =======================================================
(PID.TID 0000.0001) // =======================================================
(PID.TID 0000.0001) // Begin OBCS MONITOR field statistics
(PID.TID 0000.0001) // =======================================================
(PID.TID 0000.0001) %MON obc_N_vVel_max               =  -7.1052382373216E-08
(PID.TID 0000.0001) %MON obc_N_vVel_min               =  -7.1052382373217E-08
(PID.TID 0000.0001) %MON obc_N_vVel_mean              =  -7.1052382373216E-08
(PID.TID 0000.0001) %MON obc_N_vVel_sd                =   1.7290988493396E-14
(PID.TID 0000.0001) %MON obc_N_vVel_Int               =  -4.6894572366323E+00
(PID.TID 0000.0001) // =======================================================
(PID.TID 0000.0001) // End OBCS MONITOR field statistics
(PID.TID 0000.0001) // =======================================================
 cg2d: Sum(rhs),rhsMax =   3.01055594055534E+00  4.53047016708428E+02
(PID.TID 0000.0001)      cg2d_init_res =   1.94729057952485E-06
(PID.TID 0000.0001)      cg2d_iters(min,last) =      -1      73
(PID.TID 0000.0001)      cg2d_last_res =   7.88061850638079E-12
(PID.TID 0000.0001) // =======================================================
(PID.TID 0000.0001) // Begin MONITOR dynamic field statistics
(PID.TID 0000.0001) // =======================================================
(PID.TID 0000.0001) %MON time_tsnumber                =                   854
(PID.TID 0000.0001) %MON time_secondsf                =   8.5400000000000E+04
(PID.TID 0000.0001) %MON dynstat_eta_max              =   5.7978387709881E+00
(PID.TID 0000.0001) %MON dynstat_eta_min              =  -1.4174240819265E+01
(PID.TID 0000.0001) %MON dynstat_eta_mean             =  -2.5257840509304E+00
(PID.TID 0000.0001) %MON dynstat_eta_sd               =   4.9415756190786E+00
(PID.TID 0000.0001) %MON dynstat_eta_del2             =   1.9058289771074E-01
(PID.TID 0000.0001) %MON dynstat_uvel_max             =   3.7387278444303E-03
(PID.TID 0000.0001) %MON dynstat_uvel_min             =  -1.4359910796014E-02
(PID.TID 0000.0001) %MON dynstat_uvel_mean            =  -1.2629099370844E-09
(PID.TID 0000.0001) %MON dynstat_uvel_sd              =   3.7831763930687E-04
(PID.TID 0000.0001) %MON dynstat_uvel_del2            =   6.1941242371855E-07
(PID.TID 0000.0001) %MON dynstat_vvel_max             =   1.1184891787886E-02
(PID.TID 0000.0001) %MON dynstat_vvel_min             =  -4.0089373305090E-03
(PID.TID 0000.0001) %MON dynstat_vvel_mean            =  -5.1206363305444E-08
(PID.TID 0000.0001) %MON dynstat_vvel_sd              =   2.1410274601968E-04
(PID.TID 0000.0001) %MON dynstat_vvel_del2            =   5.6830879792270E-07
(PID.TID 0000.0001) %MON dynstat_wvel_max             =   5.7247637126968E-04
(PID.TID 0000.0001) %MON dynstat_wvel_min             =  -5.8020030545630E-04
(PID.TID 0000.0001) %MON dynstat_wvel_mean            =   2.1981024993434E-10
(PID.TID 0000.0001) %MON dynstat_wvel_sd              =   1.1505510715750E-05
(PID.TID 0000.0001) %MON dynstat_wvel_del2            =   4.7709287891151E-08
(PID.TID 0000.0001) %MON dynstat_theta_max            =   1.2000000000000E+00
(PID.TID 0000.0001) %MON dynstat_theta_min            =  -1.0000000000000E+00
(PID.TID 0000.0001) %MON dynstat_theta_mean           =   5.6529203344949E-01
(PID.TID 0000.0001) %MON dynstat_theta_sd             =   8.4900794280959E-01
(PID.TID 0000.0001) %MON dynstat_theta_del2           =   1.5919018035574E-06
(PID.TID 0000.0001) %MON dynstat_salt_max             =   3.4700000000000E+01
(PID.TID 0000.0001) %MON dynstat_salt_min             =   3.4000000000000E+01
(PID.TID 0000.0001) %MON dynstat_salt_mean            =   3.4498030638062E+01
(PID.TID 0000.0001) %MON dynstat_salt_sd              =   2.7013825709380E-01
(PID.TID 0000.0001) %MON dynstat_salt_del2            =   6.2677575093010E-07
(PID.TID 0000.0001) %MON advcfl_uvel_max              =   1.4359910796014E-03
(PID.TID 0000.0001) %MON advcfl_vvel_max              =   1.1184891787886E-03
(PID.TID 0000.0001) %MON advcfl_wvel_max              =   2.9010015272815E-03
(PID.TID 0000.0001) %MON advcfl_W_hf_max              =   2.9010015272815E-03
(PID.TID 0000.0001) %MON pe_b_mean                    =  -6.8246707940589E-01
(PID.TID 0000.0001) %MON ke_max                       =   6.3202262067799E-05
(PID.TID 0000.0001) %MON ke_mean                      =   9.3136146624838E-08
(PID.TID 0000.0001) %MON ke_vol                       =   4.6182968214012E+12
(PID.TID 0000.0001) // =======================================================
(PID.TID 0000.0001) // End MONITOR dynamic field statistics
(PID.TID 0000.0001) // =======================================================
(PID.TID 0000.0001) // =======================================================
(PID.TID 0000.0001) // Begin OBCS MONITOR field statistics
(PID.TID 0000.0001) // =======================================================
(PID.TID 0000.0001) %MON obc_N_vVel_max               =  -6.8986429635704E-08
(PID.TID 0000.0001) %MON obc_N_vVel_min               =  -6.8986429635707E-08
(PID.TID 0000.0001) %MON obc_N_vVel_mean              =  -6.8986429635707E-08
(PID.TID 0000.0001) %MON obc_N_vVel_sd                =  -5.7902390443222E-28
(PID.TID 0000.0001) %MON obc_N_vVel_Int               =  -4.5531043559566E+00
(PID.TID 0000.0001) // =======================================================
(PID.TID 0000.0001) // End OBCS MONITOR field statistics
(PID.TID 0000.0001) // =======================================================
 cg2d: Sum(rhs),rhsMax =   3.01055169475120E+00  4.53047010603947E+02
(PID.TID 0000.0001)      cg2d_init_res =   1.94881957730137E-06
(PID.TID 0000.0001)      cg2d_iters(min,last) =      -1      73
(PID.TID 0000.0001)      cg2d_last_res =   7.90658765616175E-12
(PID.TID 0000.0001) // =======================================================
(PID.TID 0000.0001) // Begin MONITOR dynamic field statistics
(PID.TID 0000.0001) // =======================================================
(PID.TID 0000.0001) %MON time_tsnumber                =                   855
(PID.TID 0000.0001) %MON time_secondsf                =   8.5500000000000E+04
(PID.TID 0000.0001) %MON dynstat_eta_max              =   5.7978415601412E+00
(PID.TID 0000.0001) %MON dynstat_eta_min              =  -1.4174234399730E+01
(PID.TID 0000.0001) %MON dynstat_eta_mean             =  -2.5257804547698E+00
(PID.TID 0000.0001) %MON dynstat_eta_sd               =   4.9415745399244E+00
(PID.TID 0000.0001) %MON dynstat_eta_del2             =   1.9058290615406E-01
(PID.TID 0000.0001) %MON dynstat_uvel_max             =   3.7438499075506E-03
(PID.TID 0000.0001) %MON dynstat_uvel_min             =  -1.4397647998413E-02
(PID.TID 0000.0001) %MON dynstat_uvel_mean            =  -1.2691011453597E-09
(PID.TID 0000.0001) %MON dynstat_uvel_sd              =   3.7936024165644E-04
(PID.TID 0000.0001) %MON dynstat_uvel_del2            =   6.2084864124681E-07
(PID.TID 0000.0001) %MON dynstat_vvel_max             =   1.1206246756097E-02
(PID.TID 0000.0001) %MON dynstat_vvel_min             =  -4.0188789040183E-03
(PID.TID 0000.0001) %MON dynstat_vvel_mean            =  -4.8843288645411E-08
(PID.TID 0000.0001) %MON dynstat_vvel_sd              =   2.1460335976366E-04
(PID.TID 0000.0001) %MON dynstat_vvel_del2            =   5.6943102934002E-07
(PID.TID 0000.0001) %MON dynstat_wvel_max             =   5.7414045800508E-04
(PID.TID 0000.0001) %MON dynstat_wvel_min             =  -5.8214650989445E-04
(PID.TID 0000.0001) %MON dynstat_wvel_mean            =   2.2034001821544E-10
(PID.TID 0000.0001) %MON dynstat_wvel_sd              =   1.1495603062806E-05
(PID.TID 0000.0001) %MON dynstat_wvel_del2            =   4.7543738981471E-08
(PID.TID 0000.0001) %MON dynstat_theta_max            =   1.2000000000000E+00
(PID.TID 0000.0001) %MON dynstat_theta_min            =  -1.0000000000000E+00
(PID.TID 0000.0001) %MON dynstat_theta_mean           =   5.6529164037968E-01
(PID.TID 0000.0001) %MON dynstat_theta_sd             =   8.4900778722118E-01
(PID.TID 0000.0001) %MON dynstat_theta_del2           =   1.5953220752793E-06
(PID.TID 0000.0001) %MON dynstat_salt_max             =   3.4700000000000E+01
(PID.TID 0000.0001) %MON dynstat_salt_min             =   3.4000000000000E+01
(PID.TID 0000.0001) %MON dynstat_salt_mean            =   3.4498030481504E+01
(PID.TID 0000.0001) %MON dynstat_salt_sd              =   2.7013820002745E-01
(PID.TID 0000.0001) %MON dynstat_salt_del2            =   6.2813706603506E-07
(PID.TID 0000.0001) %MON advcfl_uvel_max              =   1.4397647998413E-03
(PID.TID 0000.0001) %MON advcfl_vvel_max              =   1.1206246756097E-03
(PID.TID 0000.0001) %MON advcfl_wvel_max              =   2.9107325494723E-03
(PID.TID 0000.0001) %MON advcfl_W_hf_max              =   2.9107325494723E-03
(PID.TID 0000.0001) %MON pe_b_mean                    =  -6.8246604619069E-01
(PID.TID 0000.0001) %MON ke_max                       =   6.3533665604552E-05
(PID.TID 0000.0001) %MON ke_mean                      =   9.3631004712117E-08
(PID.TID 0000.0001) %MON ke_vol                       =   4.6182968427375E+12
(PID.TID 0000.0001) // =======================================================
(PID.TID 0000.0001) // End MONITOR dynamic field statistics
(PID.TID 0000.0001) // =======================================================
(PID.TID 0000.0001) // =======================================================
(PID.TID 0000.0001) // Begin OBCS MONITOR field statistics
(PID.TID 0000.0001) // =======================================================
(PID.TID 0000.0001) %MON obc_N_vVel_max               =  -6.6744800989050E-08
(PID.TID 0000.0001) %MON obc_N_vVel_min               =  -6.6744800989052E-08
(PID.TID 0000.0001) %MON obc_N_vVel_mean              =  -6.6744800989050E-08
(PID.TID 0000.0001) %MON obc_N_vVel_sd                =   1.3816813636417E-14
(PID.TID 0000.0001) %MON obc_N_vVel_Int               =  -4.4051568652773E+00
(PID.TID 0000.0001) // =======================================================
(PID.TID 0000.0001) // End OBCS MONITOR field statistics
(PID.TID 0000.0001) // =======================================================
 cg2d: Sum(rhs),rhsMax =   3.01054744415956E+00  4.53047004498506E+02
(PID.TID 0000.0001)      cg2d_init_res =   1.94985322282111E-06
(PID.TID 0000.0001)      cg2d_iters(min,last) =      -1      73
(PID.TID 0000.0001)      cg2d_last_res =   7.93269788111715E-12
(PID.TID 0000.0001) // =======================================================
(PID.TID 0000.0001) // Begin MONITOR dynamic field statistics
(PID.TID 0000.0001) // =======================================================
(PID.TID 0000.0001) %MON time_tsnumber                =                   856
(PID.TID 0000.0001) %MON time_secondsf                =   8.5600000000000E+04
(PID.TID 0000.0001) %MON dynstat_eta_max              =   5.7978443467554E+00
(PID.TID 0000.0001) %MON dynstat_eta_min              =  -1.4174227962697E+01
(PID.TID 0000.0001) %MON dynstat_eta_mean             =  -2.5257768545873E+00
(PID.TID 0000.0001) %MON dynstat_eta_sd               =   4.9415734600301E+00
(PID.TID 0000.0001) %MON dynstat_eta_del2             =   1.9058291462658E-01
(PID.TID 0000.0001) %MON dynstat_uvel_max             =   3.7489696189326E-03
(PID.TID 0000.0001) %MON dynstat_uvel_min             =  -1.4435455576642E-02
(PID.TID 0000.0001) %MON dynstat_uvel_mean            =  -1.2751367633114E-09
(PID.TID 0000.0001) %MON dynstat_uvel_sd              =   3.8040595884268E-04
(PID.TID 0000.0001) %MON dynstat_uvel_del2            =   6.2228887504862E-07
(PID.TID 0000.0001) %MON dynstat_vvel_max             =   1.1227623878640E-02
(PID.TID 0000.0001) %MON dynstat_vvel_min             =  -4.0288383957501E-03
(PID.TID 0000.0001) %MON dynstat_vvel_mean            =  -4.6303194067963E-08
(PID.TID 0000.0001) %MON dynstat_vvel_sd              =   2.1510499929895E-04
(PID.TID 0000.0001) %MON dynstat_vvel_del2            =   5.7054995421686E-07
(PID.TID 0000.0001) %MON dynstat_wvel_max             =   5.7580801426081E-04
(PID.TID 0000.0001) %MON dynstat_wvel_min             =  -5.8409852185897E-04
(PID.TID 0000.0001) %MON dynstat_wvel_mean            =   2.2080009850592E-10
(PID.TID 0000.0001) %MON dynstat_wvel_sd              =   1.1483315289538E-05
(PID.TID 0000.0001) %MON dynstat_wvel_del2            =   4.7348220898759E-08
(PID.TID 0000.0001) %MON dynstat_theta_max            =   1.2000000000000E+00
(PID.TID 0000.0001) %MON dynstat_theta_min            =  -1.0000000000000E+00
(PID.TID 0000.0001) %MON dynstat_theta_mean           =   5.6529124660592E-01
(PID.TID 0000.0001) %MON dynstat_theta_sd             =   8.4900763123702E-01
(PID.TID 0000.0001) %MON dynstat_theta_del2           =   1.5987562630748E-06
(PID.TID 0000.0001) %MON dynstat_salt_max             =   3.4700000000000E+01
(PID.TID 0000.0001) %MON dynstat_salt_min             =   3.4000000000000E+01
(PID.TID 0000.0001) %MON dynstat_salt_mean            =   3.4498030324661E+01
(PID.TID 0000.0001) %MON dynstat_salt_sd              =   2.7013814280607E-01
(PID.TID 0000.0001) %MON dynstat_salt_del2            =   6.2950303408818E-07
(PID.TID 0000.0001) %MON advcfl_uvel_max              =   1.4435455576642E-03
(PID.TID 0000.0001) %MON advcfl_vvel_max              =   1.1227623878640E-03
(PID.TID 0000.0001) %MON advcfl_wvel_max              =   2.9204926092949E-03
(PID.TID 0000.0001) %MON advcfl_W_hf_max              =   2.9204926092949E-03
(PID.TID 0000.0001) %MON pe_b_mean                    =  -6.8246501147658E-01
(PID.TID 0000.0001) %MON ke_max                       =   6.3866547330559E-05
(PID.TID 0000.0001) %MON ke_mean                      =   9.4128563258034E-08
(PID.TID 0000.0001) %MON ke_vol                       =   4.6182968640987E+12
(PID.TID 0000.0001) // =======================================================
(PID.TID 0000.0001) // End MONITOR dynamic field statistics
(PID.TID 0000.0001) // =======================================================
(PID.TID 0000.0001) // =======================================================
(PID.TID 0000.0001) // Begin OBCS MONITOR field statistics
(PID.TID 0000.0001) // =======================================================
(PID.TID 0000.0001) %MON obc_N_vVel_max               =  -6.4327808545471E-08
(PID.TID 0000.0001) %MON obc_N_vVel_min               =  -6.4327808545471E-08
(PID.TID 0000.0001) %MON obc_N_vVel_mean              =  -6.4327808545471E-08
(PID.TID 0000.0001) %MON obc_N_vVel_sd                =   9.6071185019681E-15
(PID.TID 0000.0001) %MON obc_N_vVel_Int               =  -4.2456353640011E+00
(PID.TID 0000.0001) // =======================================================
(PID.TID 0000.0001) // End OBCS MONITOR field statistics
(PID.TID 0000.0001) // =======================================================
 cg2d: Sum(rhs),rhsMax =   3.01054318897476E+00  4.53046998394033E+02
(PID.TID 0000.0001)      cg2d_init_res =   1.95065163022281E-06
(PID.TID 0000.0001)      cg2d_iters(min,last) =      -1      73
(PID.TID 0000.0001)      cg2d_last_res =   7.95889959111241E-12
(PID.TID 0000.0001) // =======================================================
(PID.TID 0000.0001) // Begin MONITOR dynamic field statistics
(PID.TID 0000.0001) // =======================================================
(PID.TID 0000.0001) %MON time_tsnumber                =                   857
(PID.TID 0000.0001) %MON time_secondsf                =   8.5700000000000E+04
(PID.TID 0000.0001) %MON dynstat_eta_max              =   5.7978471304656E+00
(PID.TID 0000.0001) %MON dynstat_eta_min              =  -1.4174221508430E+01
(PID.TID 0000.0001) %MON dynstat_eta_mean             =  -2.5257732505567E+00
(PID.TID 0000.0001) %MON dynstat_eta_sd               =   4.9415723794495E+00
(PID.TID 0000.0001) %MON dynstat_eta_del2             =   1.9058292312828E-01
(PID.TID 0000.0001) %MON dynstat_uvel_max             =   3.7540869333679E-03
(PID.TID 0000.0001) %MON dynstat_uvel_min             =  -1.4473333513894E-02
(PID.TID 0000.0001) %MON dynstat_uvel_mean            =  -1.2809832127046E-09
(PID.TID 0000.0001) %MON dynstat_uvel_sd              =   3.8145479076873E-04
(PID.TID 0000.0001) %MON dynstat_uvel_del2            =   6.2373312396250E-07
(PID.TID 0000.0001) %MON dynstat_vvel_max             =   1.1249023083995E-02
(PID.TID 0000.0001) %MON dynstat_vvel_min             =  -4.0388158509508E-03
(PID.TID 0000.0001) %MON dynstat_vvel_mean            =  -4.3587788163499E-08
(PID.TID 0000.0001) %MON dynstat_vvel_sd              =   2.1560810269076E-04
(PID.TID 0000.0001) %MON dynstat_vvel_del2            =   5.7167162256081E-07
(PID.TID 0000.0001) %MON dynstat_wvel_max             =   5.7747904407515E-04
(PID.TID 0000.0001) %MON dynstat_wvel_min             =  -5.8605635353487E-04
(PID.TID 0000.0001) %MON dynstat_wvel_mean            =   2.2118477070495E-10
(PID.TID 0000.0001) %MON dynstat_wvel_sd              =   1.1471402480169E-05
(PID.TID 0000.0001) %MON dynstat_wvel_del2            =   4.7148447266830E-08
(PID.TID 0000.0001) %MON dynstat_theta_max            =   1.2000000000000E+00
(PID.TID 0000.0001) %MON dynstat_theta_min            =  -1.0000000000000E+00
(PID.TID 0000.0001) %MON dynstat_theta_mean           =   5.6529085212408E-01
(PID.TID 0000.0001) %MON dynstat_theta_sd             =   8.4900747486099E-01
(PID.TID 0000.0001) %MON dynstat_theta_del2           =   1.6021980123807E-06
(PID.TID 0000.0001) %MON dynstat_salt_max             =   3.4700000000000E+01
(PID.TID 0000.0001) %MON dynstat_salt_min             =   3.4000000000000E+01
(PID.TID 0000.0001) %MON dynstat_salt_mean            =   3.4498030167531E+01
(PID.TID 0000.0001) %MON dynstat_salt_sd              =   2.7013808543090E-01
(PID.TID 0000.0001) %MON dynstat_salt_del2            =   6.3087198489151E-07
(PID.TID 0000.0001) %MON advcfl_uvel_max              =   1.4473333513894E-03
(PID.TID 0000.0001) %MON advcfl_vvel_max              =   1.1249023083995E-03
(PID.TID 0000.0001) %MON advcfl_wvel_max              =   2.9302817676744E-03
(PID.TID 0000.0001) %MON advcfl_W_hf_max              =   2.9302817676744E-03
(PID.TID 0000.0001) %MON pe_b_mean                    =  -6.8246397529533E-01
(PID.TID 0000.0001) %MON ke_max                       =   6.4200911769439E-05
(PID.TID 0000.0001) %MON ke_mean                      =   9.4628927806647E-08
(PID.TID 0000.0001) %MON ke_vol                       =   4.6182968854838E+12
(PID.TID 0000.0001) // =======================================================
(PID.TID 0000.0001) // End MONITOR dynamic field statistics
(PID.TID 0000.0001) // =======================================================
(PID.TID 0000.0001) // =======================================================
(PID.TID 0000.0001) // Begin OBCS MONITOR field statistics
(PID.TID 0000.0001) // =======================================================
(PID.TID 0000.0001) %MON obc_N_vVel_max               =  -6.1736571440286E-08
(PID.TID 0000.0001) %MON obc_N_vVel_min               =  -6.1736571440287E-08
(PID.TID 0000.0001) %MON obc_N_vVel_mean              =  -6.1736571440286E-08
(PID.TID 0000.0001) %MON obc_N_vVel_sd                =   1.6616296724221E-14
(PID.TID 0000.0001) %MON obc_N_vVel_Int               =  -4.0746137150589E+00
(PID.TID 0000.0001) // =======================================================
(PID.TID 0000.0001) // End OBCS MONITOR field statistics
(PID.TID 0000.0001) // =======================================================
 cg2d: Sum(rhs),rhsMax =   3.01053892939337E+00  4.53046992292306E+02
(PID.TID 0000.0001)      cg2d_init_res =   1.95148773202572E-06
(PID.TID 0000.0001)      cg2d_iters(min,last) =      -1      73
(PID.TID 0000.0001)      cg2d_last_res =   7.98515904534311E-12
(PID.TID 0000.0001) // =======================================================
(PID.TID 0000.0001) // Begin MONITOR dynamic field statistics
(PID.TID 0000.0001) // =======================================================
(PID.TID 0000.0001) %MON time_tsnumber                =                   858
(PID.TID 0000.0001) %MON time_secondsf                =   8.5800000000000E+04
(PID.TID 0000.0001) %MON dynstat_eta_max              =   5.7978499109057E+00
(PID.TID 0000.0001) %MON dynstat_eta_min              =  -1.4174215037184E+01
(PID.TID 0000.0001) %MON dynstat_eta_mean             =  -2.5257696428529E+00
(PID.TID 0000.0001) %MON dynstat_eta_sd               =   4.9415712982359E+00
(PID.TID 0000.0001) %MON dynstat_eta_del2             =   1.9058293165912E-01
(PID.TID 0000.0001) %MON dynstat_uvel_max             =   3.7592018055701E-03
(PID.TID 0000.0001) %MON dynstat_uvel_min             =  -1.4511281792508E-02
(PID.TID 0000.0001) %MON dynstat_uvel_mean            =  -1.2866175370381E-09
(PID.TID 0000.0001) %MON dynstat_uvel_sd              =   3.8250673753461E-04
(PID.TID 0000.0001) %MON dynstat_uvel_del2            =   6.2518138613316E-07
(PID.TID 0000.0001) %MON dynstat_vvel_max             =   1.1270444299998E-02
(PID.TID 0000.0001) %MON dynstat_vvel_min             =  -4.0488113149184E-03
(PID.TID 0000.0001) %MON dynstat_vvel_mean            =  -4.0699455734271E-08
(PID.TID 0000.0001) %MON dynstat_vvel_sd              =   2.1611309714598E-04
(PID.TID 0000.0001) %MON dynstat_vvel_del2            =   5.7280196054824E-07
(PID.TID 0000.0001) %MON dynstat_wvel_max             =   5.7915355144661E-04
(PID.TID 0000.0001) %MON dynstat_wvel_min             =  -5.8802001719144E-04
(PID.TID 0000.0001) %MON dynstat_wvel_mean            =   2.2148918812037E-10
(PID.TID 0000.0001) %MON dynstat_wvel_sd              =   1.1462601852305E-05
(PID.TID 0000.0001) %MON dynstat_wvel_del2            =   4.6970531209633E-08
(PID.TID 0000.0001) %MON dynstat_theta_max            =   1.2000000000000E+00
(PID.TID 0000.0001) %MON dynstat_theta_min            =  -1.0000000000000E+00
(PID.TID 0000.0001) %MON dynstat_theta_mean           =   5.6529045692957E-01
(PID.TID 0000.0001) %MON dynstat_theta_sd             =   8.4900731809193E-01
(PID.TID 0000.0001) %MON dynstat_theta_del2           =   1.6056412154086E-06
(PID.TID 0000.0001) %MON dynstat_salt_max             =   3.4700000000000E+01
(PID.TID 0000.0001) %MON dynstat_salt_min             =   3.4000000000000E+01
(PID.TID 0000.0001) %MON dynstat_salt_mean            =   3.4498030010113E+01
(PID.TID 0000.0001) %MON dynstat_salt_sd              =   2.7013802790152E-01
(PID.TID 0000.0001) %MON dynstat_salt_del2            =   6.3224239259977E-07
(PID.TID 0000.0001) %MON advcfl_uvel_max              =   1.4511281792508E-03
(PID.TID 0000.0001) %MON advcfl_vvel_max              =   1.1270444299998E-03
(PID.TID 0000.0001) %MON advcfl_wvel_max              =   2.9401000859572E-03
(PID.TID 0000.0001) %MON advcfl_W_hf_max              =   2.9401000859572E-03
(PID.TID 0000.0001) %MON pe_b_mean                    =  -6.8246293767900E-01
(PID.TID 0000.0001) %MON ke_max                       =   6.4536763443834E-05
(PID.TID 0000.0001) %MON ke_mean                      =   9.5132202544467E-08
(PID.TID 0000.0001) %MON ke_vol                       =   4.6182969068917E+12
(PID.TID 0000.0001) // =======================================================
(PID.TID 0000.0001) // End MONITOR dynamic field statistics
(PID.TID 0000.0001) // =======================================================
(PID.TID 0000.0001) // =======================================================
(PID.TID 0000.0001) // Begin OBCS MONITOR field statistics
(PID.TID 0000.0001) // =======================================================
(PID.TID 0000.0001) %MON obc_N_vVel_max               =  -5.8972920486600E-08
(PID.TID 0000.0001) %MON obc_N_vVel_min               =  -5.8972920486600E-08
(PID.TID 0000.0001) %MON obc_N_vVel_mean              =  -5.8972920486600E-08
(PID.TID 0000.0001) %MON obc_N_vVel_sd                =  -8.5591408216480E-29
(PID.TID 0000.0001) %MON obc_N_vVel_Int               =  -3.8922127521156E+00
(PID.TID 0000.0001) // =======================================================
(PID.TID 0000.0001) // End OBCS MONITOR field statistics
(PID.TID 0000.0001) // =======================================================
 cg2d: Sum(rhs),rhsMax =   3.01053466560416E+00  4.53046986195141E+02
(PID.TID 0000.0001)      cg2d_init_res =   1.95264181913345E-06
(PID.TID 0000.0001)      cg2d_iters(min,last) =      -1      73
(PID.TID 0000.0001)      cg2d_last_res =   8.01160057917991E-12
(PID.TID 0000.0001) // =======================================================
(PID.TID 0000.0001) // Begin MONITOR dynamic field statistics
(PID.TID 0000.0001) // =======================================================
(PID.TID 0000.0001) %MON time_tsnumber                =                   859
(PID.TID 0000.0001) %MON time_secondsf                =   8.5900000000000E+04
(PID.TID 0000.0001) %MON dynstat_eta_max              =   5.7978526876941E+00
(PID.TID 0000.0001) %MON dynstat_eta_min              =  -1.4174208549203E+01
(PID.TID 0000.0001) %MON dynstat_eta_mean             =  -2.5257660316444E+00
(PID.TID 0000.0001) %MON dynstat_eta_sd               =   4.9415702164444E+00
(PID.TID 0000.0001) %MON dynstat_eta_del2             =   1.9058294021930E-01
(PID.TID 0000.0001) %MON dynstat_uvel_max             =   3.7643141905122E-03
(PID.TID 0000.0001) %MON dynstat_uvel_min             =  -1.4549300393988E-02
(PID.TID 0000.0001) %MON dynstat_uvel_mean            =  -1.2920197211774E-09
(PID.TID 0000.0001) %MON dynstat_uvel_sd              =   3.8356179939669E-04
(PID.TID 0000.0001) %MON dynstat_uvel_del2            =   6.2663366337268E-07
(PID.TID 0000.0001) %MON dynstat_vvel_max             =   1.1291887454073E-02
(PID.TID 0000.0001) %MON dynstat_vvel_min             =  -4.0588248329065E-03
(PID.TID 0000.0001) %MON dynstat_vvel_mean            =  -3.7641192958423E-08
(PID.TID 0000.0001) %MON dynstat_vvel_sd              =   2.1662035706234E-04
(PID.TID 0000.0001) %MON dynstat_vvel_del2            =   5.7394620025308E-07
(PID.TID 0000.0001) %MON dynstat_wvel_max             =   5.8083154034740E-04
(PID.TID 0000.0001) %MON dynstat_wvel_min             =  -5.8998952516201E-04
(PID.TID 0000.0001) %MON dynstat_wvel_mean            =   2.2170873769698E-10
(PID.TID 0000.0001) %MON dynstat_wvel_sd              =   1.1459363862278E-05
(PID.TID 0000.0001) %MON dynstat_wvel_del2            =   4.6838388241187E-08
(PID.TID 0000.0001) %MON dynstat_theta_max            =   1.2000000000000E+00
(PID.TID 0000.0001) %MON dynstat_theta_min            =  -1.0000000000000E+00
(PID.TID 0000.0001) %MON dynstat_theta_mean           =   5.6529006101670E-01
(PID.TID 0000.0001) %MON dynstat_theta_sd             =   8.4900716092807E-01
(PID.TID 0000.0001) %MON dynstat_theta_del2           =   1.6090808180624E-06
(PID.TID 0000.0001) %MON dynstat_salt_max             =   3.4700000000000E+01
(PID.TID 0000.0001) %MON dynstat_salt_min             =   3.4000000000000E+01
(PID.TID 0000.0001) %MON dynstat_salt_mean            =   3.4498029852405E+01
(PID.TID 0000.0001) %MON dynstat_salt_sd              =   2.7013797021730E-01
(PID.TID 0000.0001) %MON dynstat_salt_del2            =   6.3361294744173E-07
(PID.TID 0000.0001) %MON advcfl_uvel_max              =   1.4549300393988E-03
(PID.TID 0000.0001) %MON advcfl_vvel_max              =   1.1291887454073E-03
(PID.TID 0000.0001) %MON advcfl_wvel_max              =   2.9499476258100E-03
(PID.TID 0000.0001) %MON advcfl_W_hf_max              =   2.9499476258100E-03
(PID.TID 0000.0001) %MON pe_b_mean                    =  -6.8246189865797E-01
(PID.TID 0000.0001) %MON ke_max                       =   6.4874106875099E-05
(PID.TID 0000.0001) %MON ke_mean                      =   9.5638481178914E-08
(PID.TID 0000.0001) %MON ke_vol                       =   4.6182969283215E+12
(PID.TID 0000.0001) // =======================================================
(PID.TID 0000.0001) // End MONITOR dynamic field statistics
(PID.TID 0000.0001) // =======================================================
(PID.TID 0000.0001) // =======================================================
(PID.TID 0000.0001) // Begin OBCS MONITOR field statistics
(PID.TID 0000.0001) // =======================================================
(PID.TID 0000.0001) %MON obc_N_vVel_max               =  -5.6039344486559E-08
(PID.TID 0000.0001) %MON obc_N_vVel_min               =  -5.6039344486560E-08
(PID.TID 0000.0001) %MON obc_N_vVel_mean              =  -5.6039344486559E-08
(PID.TID 0000.0001) %MON obc_N_vVel_sd                =   3.5527136788005E-15
(PID.TID 0000.0001) %MON obc_N_vVel_Int               =  -3.6985967361129E+00
(PID.TID 0000.0001) // =======================================================
(PID.TID 0000.0001) // End OBCS MONITOR field statistics
(PID.TID 0000.0001) // =======================================================
 cg2d: Sum(rhs),rhsMax =   3.01053039779181E+00  4.53046980104227E+02
(PID.TID 0000.0001)      cg2d_init_res =   1.95433129974631E-06
(PID.TID 0000.0001)      cg2d_iters(min,last) =      -1      73
(PID.TID 0000.0001)      cg2d_last_res =   8.03820608705806E-12
(PID.TID 0000.0001) // =======================================================
(PID.TID 0000.0001) // Begin MONITOR dynamic field statistics
(PID.TID 0000.0001) // =======================================================
(PID.TID 0000.0001) %MON time_tsnumber                =                   860
(PID.TID 0000.0001) %MON time_secondsf                =   8.6000000000000E+04
(PID.TID 0000.0001) %MON dynstat_eta_max              =   5.7978554604609E+00
(PID.TID 0000.0001) %MON dynstat_eta_min              =  -1.4174202044733E+01
(PID.TID 0000.0001) %MON dynstat_eta_mean             =  -2.5257624170955E+00
(PID.TID 0000.0001) %MON dynstat_eta_sd               =   4.9415691341238E+00
(PID.TID 0000.0001) %MON dynstat_eta_del2             =   1.9058294880879E-01
(PID.TID 0000.0001) %MON dynstat_uvel_max             =   3.7694240430444E-03
(PID.TID 0000.0001) %MON dynstat_uvel_min             =  -1.4587389299050E-02
(PID.TID 0000.0001) %MON dynstat_uvel_mean            =  -1.2971677317890E-09
(PID.TID 0000.0001) %MON dynstat_uvel_sd              =   3.8461997682504E-04
(PID.TID 0000.0001) %MON dynstat_uvel_del2            =   6.2808995858467E-07
(PID.TID 0000.0001) %MON dynstat_vvel_max             =   1.1313352472974E-02
(PID.TID 0000.0001) %MON dynstat_vvel_min             =  -4.0688564502140E-03
(PID.TID 0000.0001) %MON dynstat_vvel_mean            =  -3.4416515775415E-08
(PID.TID 0000.0001) %MON dynstat_vvel_sd              =   2.1713016805044E-04
(PID.TID 0000.0001) %MON dynstat_vvel_del2            =   5.7510838767158E-07
(PID.TID 0000.0001) %MON dynstat_wvel_max             =   5.8251301473879E-04
(PID.TID 0000.0001) %MON dynstat_wvel_min             =  -5.9196488981678E-04
(PID.TID 0000.0001) %MON dynstat_wvel_mean            =   2.2184019495590E-10
(PID.TID 0000.0001) %MON dynstat_wvel_sd              =   1.1463610243820E-05
(PID.TID 0000.0001) %MON dynstat_wvel_del2            =   4.6771258560127E-08
(PID.TID 0000.0001) %MON dynstat_theta_max            =   1.2000000000000E+00
(PID.TID 0000.0001) %MON dynstat_theta_min            =  -1.0000000000000E+00
(PID.TID 0000.0001) %MON dynstat_theta_mean           =   5.6528966437905E-01
(PID.TID 0000.0001) %MON dynstat_theta_sd             =   8.4900700337143E-01
(PID.TID 0000.0001) %MON dynstat_theta_del2           =   1.6125131729731E-06
(PID.TID 0000.0001) %MON dynstat_salt_max             =   3.4700000000000E+01
(PID.TID 0000.0001) %MON dynstat_salt_min             =   3.4000000000000E+01
(PID.TID 0000.0001) %MON dynstat_salt_mean            =   3.4498029694405E+01
(PID.TID 0000.0001) %MON dynstat_salt_sd              =   2.7013791237887E-01
(PID.TID 0000.0001) %MON dynstat_salt_del2            =   6.3498269934035E-07
(PID.TID 0000.0001) %MON advcfl_uvel_max              =   1.4587389299050E-03
(PID.TID 0000.0001) %MON advcfl_vvel_max              =   1.1313352472974E-03
(PID.TID 0000.0001) %MON advcfl_wvel_max              =   2.9598244490839E-03
(PID.TID 0000.0001) %MON advcfl_W_hf_max              =   2.9598244490839E-03
(PID.TID 0000.0001) %MON pe_b_mean                    =  -6.8246085826169E-01
(PID.TID 0000.0001) %MON ke_max                       =   6.5212946583854E-05
(PID.TID 0000.0001) %MON ke_mean                      =   9.6147839023583E-08
(PID.TID 0000.0001) %MON ke_vol                       =   4.6182969497720E+12
(PID.TID 0000.0001) // =======================================================
(PID.TID 0000.0001) // End MONITOR dynamic field statistics
(PID.TID 0000.0001) // =======================================================
(PID.TID 0000.0001) // =======================================================
(PID.TID 0000.0001) // Begin OBCS MONITOR field statistics
(PID.TID 0000.0001) // =======================================================
(PID.TID 0000.0001) %MON obc_N_vVel_max               =  -5.2938909469882E-08
(PID.TID 0000.0001) %MON obc_N_vVel_min               =  -5.2938909469883E-08
(PID.TID 0000.0001) %MON obc_N_vVel_mean              =  -5.2938909469882E-08
(PID.TID 0000.0001) %MON obc_N_vVel_sd                =   1.1426131445685E-14
(PID.TID 0000.0001) %MON obc_N_vVel_Int               =  -3.4939680250122E+00
(PID.TID 0000.0001) // =======================================================
(PID.TID 0000.0001) // End OBCS MONITOR field statistics
(PID.TID 0000.0001) // =======================================================
 cg2d: Sum(rhs),rhsMax =   3.01052612613957E+00  4.53046974021179E+02
(PID.TID 0000.0001)      cg2d_init_res =   1.95674093200536E-06
(PID.TID 0000.0001)      cg2d_iters(min,last) =      -1      73
(PID.TID 0000.0001)      cg2d_last_res =   8.06494574444589E-12
(PID.TID 0000.0001) // =======================================================
(PID.TID 0000.0001) // Begin MONITOR dynamic field statistics
(PID.TID 0000.0001) // =======================================================
(PID.TID 0000.0001) %MON time_tsnumber                =                   861
(PID.TID 0000.0001) %MON time_secondsf                =   8.6100000000000E+04
(PID.TID 0000.0001) %MON dynstat_eta_max              =   5.7978582288249E+00
(PID.TID 0000.0001) %MON dynstat_eta_min              =  -1.4174195524010E+01
(PID.TID 0000.0001) %MON dynstat_eta_mean             =  -2.5257587993690E+00
(PID.TID 0000.0001) %MON dynstat_eta_sd               =   4.9415680513224E+00
(PID.TID 0000.0001) %MON dynstat_eta_del2             =   1.9058295742764E-01
(PID.TID 0000.0001) %MON dynstat_uvel_max             =   3.7745313182747E-03
(PID.TID 0000.0001) %MON dynstat_uvel_min             =  -1.4625548487509E-02
(PID.TID 0000.0001) %MON dynstat_uvel_mean            =  -1.3020380266831E-09
(PID.TID 0000.0001) %MON dynstat_uvel_sd              =   3.8568127053646E-04
(PID.TID 0000.0001) %MON dynstat_uvel_del2            =   6.2955027702426E-07
(PID.TID 0000.0001) %MON dynstat_vvel_max             =   1.1334839283178E-02
(PID.TID 0000.0001) %MON dynstat_vvel_min             =  -4.0789062120243E-03
(PID.TID 0000.0001) %MON dynstat_vvel_mean            =  -3.1029381012199E-08
(PID.TID 0000.0001) %MON dynstat_vvel_sd              =   2.1764269947769E-04
(PID.TID 0000.0001) %MON dynstat_vvel_del2            =   5.7629101624478E-07
(PID.TID 0000.0001) %MON dynstat_wvel_max             =   5.8419797854408E-04
(PID.TID 0000.0001) %MON dynstat_wvel_min             =  -5.9394612362341E-04
(PID.TID 0000.0001) %MON dynstat_wvel_mean            =   2.2188097229743E-10
(PID.TID 0000.0001) %MON dynstat_wvel_sd              =   1.1476545690849E-05
(PID.TID 0000.0001) %MON dynstat_wvel_del2            =   4.6781661557365E-08
(PID.TID 0000.0001) %MON dynstat_theta_max            =   1.2000000000000E+00
(PID.TID 0000.0001) %MON dynstat_theta_min            =  -1.0000000000000E+00
(PID.TID 0000.0001) %MON dynstat_theta_mean           =   5.6528926700996E-01
(PID.TID 0000.0001) %MON dynstat_theta_sd             =   8.4900684542413E-01
(PID.TID 0000.0001) %MON dynstat_theta_del2           =   1.6159363893619E-06
(PID.TID 0000.0001) %MON dynstat_salt_max             =   3.4700000000000E+01
(PID.TID 0000.0001) %MON dynstat_salt_min             =   3.4000000000000E+01
(PID.TID 0000.0001) %MON dynstat_salt_mean            =   3.4498029536110E+01
(PID.TID 0000.0001) %MON dynstat_salt_sd              =   2.7013785438676E-01
(PID.TID 0000.0001) %MON dynstat_salt_del2            =   6.3635114989754E-07
(PID.TID 0000.0001) %MON advcfl_uvel_max              =   1.4625548487509E-03
(PID.TID 0000.0001) %MON advcfl_vvel_max              =   1.1334839283178E-03
(PID.TID 0000.0001) %MON advcfl_wvel_max              =   2.9697306181171E-03
(PID.TID 0000.0001) %MON advcfl_W_hf_max              =   2.9697306181171E-03
(PID.TID 0000.0001) %MON pe_b_mean                    =  -6.8245981651924E-01
(PID.TID 0000.0001) %MON ke_max                       =   6.5553287089304E-05
(PID.TID 0000.0001) %MON ke_mean                      =   9.6660326817908E-08
(PID.TID 0000.0001) %MON ke_vol                       =   4.6182969712425E+12
(PID.TID 0000.0001) // =======================================================
(PID.TID 0000.0001) // End MONITOR dynamic field statistics
(PID.TID 0000.0001) // =======================================================
(PID.TID 0000.0001) // =======================================================
(PID.TID 0000.0001) // Begin OBCS MONITOR field statistics
(PID.TID 0000.0001) // =======================================================
(PID.TID 0000.0001) %MON obc_N_vVel_max               =  -4.9675213787493E-08
(PID.TID 0000.0001) %MON obc_N_vVel_min               =  -4.9675213787494E-08
(PID.TID 0000.0001) %MON obc_N_vVel_mean              =  -4.9675213787493E-08
(PID.TID 0000.0001) %MON obc_N_vVel_sd                =   1.3716534762658E-14
(PID.TID 0000.0001) %MON obc_N_vVel_Int               =  -3.2785641099745E+00
(PID.TID 0000.0001) // =======================================================
(PID.TID 0000.0001) // End OBCS MONITOR field statistics
(PID.TID 0000.0001) // =======================================================
 cg2d: Sum(rhs),rhsMax =   3.01052185082651E+00  4.53046967947536E+02
(PID.TID 0000.0001)      cg2d_init_res =   1.95997358424103E-06
(PID.TID 0000.0001)      cg2d_iters(min,last) =      -1      73
(PID.TID 0000.0001)      cg2d_last_res =   8.09176014372971E-12
(PID.TID 0000.0001) // =======================================================
(PID.TID 0000.0001) // Begin MONITOR dynamic field statistics
(PID.TID 0000.0001) // =======================================================
(PID.TID 0000.0001) %MON time_tsnumber                =                   862
(PID.TID 0000.0001) %MON time_secondsf                =   8.6200000000000E+04
(PID.TID 0000.0001) %MON dynstat_eta_max              =   5.7978609924125E+00
(PID.TID 0000.0001) %MON dynstat_eta_min              =  -1.4174188987256E+01
(PID.TID 0000.0001) %MON dynstat_eta_mean             =  -2.5257551786236E+00
(PID.TID 0000.0001) %MON dynstat_eta_sd               =   4.9415669680880E+00
(PID.TID 0000.0001) %MON dynstat_eta_del2             =   1.9058296607599E-01
(PID.TID 0000.0001) %MON dynstat_uvel_max             =   3.7796359711830E-03
(PID.TID 0000.0001) %MON dynstat_uvel_min             =  -1.4663777938455E-02
(PID.TID 0000.0001) %MON dynstat_uvel_mean            =  -1.3066138567698E-09
(PID.TID 0000.0001) %MON dynstat_uvel_sd              =   3.8674568149980E-04
(PID.TID 0000.0001) %MON dynstat_uvel_del2            =   6.3101462651306E-07
(PID.TID 0000.0001) %MON dynstat_vvel_max             =   1.1356347810452E-02
(PID.TID 0000.0001) %MON dynstat_vvel_min             =  -4.0889741632872E-03
(PID.TID 0000.0001) %MON dynstat_vvel_mean            =  -2.7484127207220E-08
(PID.TID 0000.0001) %MON dynstat_vvel_sd              =   2.1815798825968E-04
(PID.TID 0000.0001) %MON dynstat_vvel_del2            =   5.7749481924050E-07
(PID.TID 0000.0001) %MON dynstat_wvel_max             =   5.8588643569166E-04
(PID.TID 0000.0001) %MON dynstat_wvel_min             =  -5.9593323904886E-04
(PID.TID 0000.0001) %MON dynstat_wvel_mean            =   2.2182924658259E-10
(PID.TID 0000.0001) %MON dynstat_wvel_sd              =   1.1498545018626E-05
(PID.TID 0000.0001) %MON dynstat_wvel_del2            =   4.6874078055314E-08
(PID.TID 0000.0001) %MON dynstat_theta_max            =   1.2000000000000E+00
(PID.TID 0000.0001) %MON dynstat_theta_min            =  -1.0000000000000E+00
(PID.TID 0000.0001) %MON dynstat_theta_mean           =   5.6528886890242E-01
(PID.TID 0000.0001) %MON dynstat_theta_sd             =   8.4900668708363E-01
(PID.TID 0000.0001) %MON dynstat_theta_del2           =   1.6193507245183E-06
(PID.TID 0000.0001) %MON dynstat_salt_max             =   3.4700000000000E+01
(PID.TID 0000.0001) %MON dynstat_salt_min             =   3.4000000000000E+01
(PID.TID 0000.0001) %MON dynstat_salt_mean            =   3.4498029377517E+01
(PID.TID 0000.0001) %MON dynstat_salt_sd              =   2.7013779624005E-01
(PID.TID 0000.0001) %MON dynstat_salt_del2            =   6.3771832684220E-07
(PID.TID 0000.0001) %MON advcfl_uvel_max              =   1.4663777938455E-03
(PID.TID 0000.0001) %MON advcfl_vvel_max              =   1.1356347810452E-03
(PID.TID 0000.0001) %MON advcfl_wvel_max              =   2.9796661952443E-03
(PID.TID 0000.0001) %MON advcfl_W_hf_max              =   2.9796661952443E-03
(PID.TID 0000.0001) %MON pe_b_mean                    =  -6.8245877345892E-01
(PID.TID 0000.0001) %MON ke_max                       =   6.5895132910227E-05
(PID.TID 0000.0001) %MON ke_mean                      =   9.7175966902734E-08
(PID.TID 0000.0001) %MON ke_vol                       =   4.6182969927317E+12
(PID.TID 0000.0001) // =======================================================
(PID.TID 0000.0001) // End MONITOR dynamic field statistics
(PID.TID 0000.0001) // =======================================================
(PID.TID 0000.0001) // =======================================================
(PID.TID 0000.0001) // Begin OBCS MONITOR field statistics
(PID.TID 0000.0001) // =======================================================
(PID.TID 0000.0001) %MON obc_N_vVel_max               =  -4.6252311667438E-08
(PID.TID 0000.0001) %MON obc_N_vVel_min               =  -4.6252311667438E-08
(PID.TID 0000.0001) %MON obc_N_vVel_mean              =  -4.6252311667438E-08
(PID.TID 0000.0001) %MON obc_N_vVel_sd                =  -1.0412963948917E-28
(PID.TID 0000.0001) %MON obc_N_vVel_Int               =  -3.0526525700509E+00
(PID.TID 0000.0001) // =======================================================
(PID.TID 0000.0001) // End OBCS MONITOR field statistics
(PID.TID 0000.0001) // =======================================================
 cg2d: Sum(rhs),rhsMax =   3.01051757202245E+00  4.53046961884768E+02
(PID.TID 0000.0001)      cg2d_init_res =   1.96404282421147E-06
(PID.TID 0000.0001)      cg2d_iters(min,last) =      -1      73
(PID.TID 0000.0001)      cg2d_last_res =   8.11858151675897E-12
(PID.TID 0000.0001) // =======================================================
(PID.TID 0000.0001) // Begin MONITOR dynamic field statistics
(PID.TID 0000.0001) // =======================================================
(PID.TID 0000.0001) %MON time_tsnumber                =                   863
(PID.TID 0000.0001) %MON time_secondsf                =   8.6300000000000E+04
(PID.TID 0000.0001) %MON dynstat_eta_max              =   5.7978637508463E+00
(PID.TID 0000.0001) %MON dynstat_eta_min              =  -1.4174182434684E+01
(PID.TID 0000.0001) %MON dynstat_eta_mean             =  -2.5257515550101E+00
(PID.TID 0000.0001) %MON dynstat_eta_sd               =   4.9415658844632E+00
(PID.TID 0000.0001) %MON dynstat_eta_del2             =   1.9058297475390E-01
(PID.TID 0000.0001) %MON dynstat_uvel_max             =   3.7847379570302E-03
(PID.TID 0000.0001) %MON dynstat_uvel_min             =  -1.4702077630036E-02
(PID.TID 0000.0001) %MON dynstat_uvel_mean            =  -1.3108866035263E-09
(PID.TID 0000.0001) %MON dynstat_uvel_sd              =   3.8781321092524E-04
(PID.TID 0000.0001) %MON dynstat_uvel_del2            =   6.3248301703189E-07
(PID.TID 0000.0001) %MON dynstat_vvel_max             =   1.1377877980351E-02
(PID.TID 0000.0001) %MON dynstat_vvel_min             =  -4.0990603489330E-03
(PID.TID 0000.0001) %MON dynstat_vvel_mean            =  -2.3785428019680E-08
(PID.TID 0000.0001) %MON dynstat_vvel_sd              =   2.1867593517873E-04
(PID.TID 0000.0001) %MON dynstat_vvel_del2            =   5.7871873771472E-07
(PID.TID 0000.0001) %MON dynstat_wvel_max             =   5.8757839005034E-04
(PID.TID 0000.0001) %MON dynstat_wvel_min             =  -5.9792624866740E-04
(PID.TID 0000.0001) %MON dynstat_wvel_mean            =   2.2168419998772E-10
(PID.TID 0000.0001) %MON dynstat_wvel_sd              =   1.1529128864632E-05
(PID.TID 0000.0001) %MON dynstat_wvel_del2            =   4.7044565579920E-08
(PID.TID 0000.0001) %MON dynstat_theta_max            =   1.2000000000000E+00
(PID.TID 0000.0001) %MON dynstat_theta_min            =  -1.0000000000000E+00
(PID.TID 0000.0001) %MON dynstat_theta_mean           =   5.6528847004882E-01
(PID.TID 0000.0001) %MON dynstat_theta_sd             =   8.4900652833984E-01
(PID.TID 0000.0001) %MON dynstat_theta_del2           =   1.6227580082505E-06
(PID.TID 0000.0001) %MON dynstat_salt_max             =   3.4700000000000E+01
(PID.TID 0000.0001) %MON dynstat_salt_min             =   3.4000000000000E+01
(PID.TID 0000.0001) %MON dynstat_salt_mean            =   3.4498029218625E+01
(PID.TID 0000.0001) %MON dynstat_salt_sd              =   2.7013773793575E-01
(PID.TID 0000.0001) %MON dynstat_salt_del2            =   6.3908474266213E-07
(PID.TID 0000.0001) %MON advcfl_uvel_max              =   1.4702077630036E-03
(PID.TID 0000.0001) %MON advcfl_vvel_max              =   1.1377877980351E-03
(PID.TID 0000.0001) %MON advcfl_wvel_max              =   2.9896312433370E-03
(PID.TID 0000.0001) %MON advcfl_W_hf_max              =   2.9896312433370E-03
(PID.TID 0000.0001) %MON pe_b_mean                    =  -6.8245772910722E-01
(PID.TID 0000.0001) %MON ke_max                       =   6.6238488563318E-05
(PID.TID 0000.0001) %MON ke_mean                      =   9.7694752073965E-08
(PID.TID 0000.0001) %MON ke_vol                       =   4.6182970142390E+12
(PID.TID 0000.0001) // =======================================================
(PID.TID 0000.0001) // End MONITOR dynamic field statistics
(PID.TID 0000.0001) // =======================================================
(PID.TID 0000.0001) // =======================================================
(PID.TID 0000.0001) // Begin OBCS MONITOR field statistics
(PID.TID 0000.0001) // =======================================================
(PID.TID 0000.0001) %MON obc_N_vVel_max               =  -4.2674674372410E-08
(PID.TID 0000.0001) %MON obc_N_vVel_min               =  -4.2674674372411E-08
(PID.TID 0000.0001) %MON obc_N_vVel_mean              =  -4.2674674372411E-08
(PID.TID 0000.0001) %MON obc_N_vVel_sd                =  -1.5658888968637E-28
(PID.TID 0000.0001) %MON obc_N_vVel_Int               =  -2.8165285085791E+00
(PID.TID 0000.0001) // =======================================================
(PID.TID 0000.0001) // End OBCS MONITOR field statistics
(PID.TID 0000.0001) // =======================================================
 cg2d: Sum(rhs),rhsMax =   3.01051328989222E+00  4.53046955834280E+02
(PID.TID 0000.0001)      cg2d_init_res =   1.96888955090258E-06
(PID.TID 0000.0001)      cg2d_iters(min,last) =      -1      73
(PID.TID 0000.0001)      cg2d_last_res =   8.14538220465365E-12
(PID.TID 0000.0001) // =======================================================
(PID.TID 0000.0001) // Begin MONITOR dynamic field statistics
(PID.TID 0000.0001) // =======================================================
(PID.TID 0000.0001) %MON time_tsnumber                =                   864
(PID.TID 0000.0001) %MON time_secondsf                =   8.6400000000000E+04
(PID.TID 0000.0001) %MON dynstat_eta_max              =   5.7978665037532E+00
(PID.TID 0000.0001) %MON dynstat_eta_min              =  -1.4174175866518E+01
(PID.TID 0000.0001) %MON dynstat_eta_mean             =  -2.5257479286746E+00
(PID.TID 0000.0001) %MON dynstat_eta_sd               =   4.9415648004891E+00
(PID.TID 0000.0001) %MON dynstat_eta_del2             =   1.9058298346131E-01
(PID.TID 0000.0001) %MON dynstat_uvel_max             =   3.7898372309737E-03
(PID.TID 0000.0001) %MON dynstat_uvel_min             =  -1.4740447539704E-02
(PID.TID 0000.0001) %MON dynstat_uvel_mean            =  -1.3148507215783E-09
(PID.TID 0000.0001) %MON dynstat_uvel_sd              =   3.8888386025377E-04
(PID.TID 0000.0001) %MON dynstat_uvel_del2            =   6.3395546076303E-07
(PID.TID 0000.0001) %MON dynstat_vvel_max             =   1.1399429717843E-02
(PID.TID 0000.0001) %MON dynstat_vvel_min             =  -4.1091648138210E-03
(PID.TID 0000.0001) %MON dynstat_vvel_mean            =  -1.9938272730620E-08
(PID.TID 0000.0001) %MON dynstat_vvel_sd              =   2.1919631372204E-04
(PID.TID 0000.0001) %MON dynstat_vvel_del2            =   5.7996006479520E-07
(PID.TID 0000.0001) %MON dynstat_wvel_max             =   5.8927384549229E-04
(PID.TID 0000.0001) %MON dynstat_wvel_min             =  -5.9992516507010E-04
(PID.TID 0000.0001) %MON dynstat_wvel_mean            =   2.2144519917132E-10
(PID.TID 0000.0001) %MON dynstat_wvel_sd              =   1.1567029693274E-05
(PID.TID 0000.0001) %MON dynstat_wvel_del2            =   4.7281362927225E-08
(PID.TID 0000.0001) %MON dynstat_theta_max            =   1.2000000000000E+00
(PID.TID 0000.0001) %MON dynstat_theta_min            =  -1.0000000000000E+00
(PID.TID 0000.0001) %MON dynstat_theta_mean           =   5.6528807044149E-01
(PID.TID 0000.0001) %MON dynstat_theta_sd             =   8.4900636918495E-01
(PID.TID 0000.0001) %MON dynstat_theta_del2           =   1.6261618425303E-06
(PID.TID 0000.0001) %MON dynstat_salt_max             =   3.4700000000000E+01
(PID.TID 0000.0001) %MON dynstat_salt_min             =   3.4000000000000E+01
(PID.TID 0000.0001) %MON dynstat_salt_mean            =   3.4498029059430E+01
(PID.TID 0000.0001) %MON dynstat_salt_sd              =   2.7013767947107E-01
(PID.TID 0000.0001) %MON dynstat_salt_del2            =   6.4045131742287E-07
(PID.TID 0000.0001) %MON advcfl_uvel_max              =   1.4740447539704E-03
(PID.TID 0000.0001) %MON advcfl_vvel_max              =   1.1399429717843E-03
(PID.TID 0000.0001) %MON advcfl_wvel_max              =   2.9996258253505E-03
(PID.TID 0000.0001) %MON advcfl_W_hf_max              =   2.9996258253505E-03
(PID.TID 0000.0001) %MON pe_b_mean                    =  -6.8245668348959E-01
(PID.TID 0000.0001) %MON ke_max                       =   6.6583358564882E-05
(PID.TID 0000.0001) %MON ke_mean                      =   9.8216647163697E-08
(PID.TID 0000.0001) %MON ke_vol                       =   4.6182970357632E+12
(PID.TID 0000.0001) // =======================================================
(PID.TID 0000.0001) // End MONITOR dynamic field statistics
(PID.TID 0000.0001) // =======================================================
(PID.TID 0000.0001) // =======================================================
(PID.TID 0000.0001) // Begin OBCS MONITOR field statistics
(PID.TID 0000.0001) // =======================================================
(PID.TID 0000.0001) %MON obc_N_vVel_max               =  -3.8947119383262E-08
(PID.TID 0000.0001) %MON obc_N_vVel_min               =  -3.8947119383262E-08
(PID.TID 0000.0001) %MON obc_N_vVel_mean              =  -3.8947119383262E-08
(PID.TID 0000.0001) %MON obc_N_vVel_sd                =  -4.7528869539566E-29
(PID.TID 0000.0001) %MON obc_N_vVel_Int               =  -2.5705098792953E+00
(PID.TID 0000.0001) // =======================================================
(PID.TID 0000.0001) // End OBCS MONITOR field statistics
(PID.TID 0000.0001) // =======================================================
(PID.TID 0000.0001) %CHECKPOINT       864 0000000864
 cg2d: Sum(rhs),rhsMax =   3.01050900458787E+00  4.53046949797399E+02
(PID.TID 0000.0001)      cg2d_init_res =   1.97436971438197E-06
(PID.TID 0000.0001)      cg2d_iters(min,last) =      -1      73
(PID.TID 0000.0001)      cg2d_last_res =   8.17217028507707E-12
(PID.TID 0000.0001) // =======================================================
(PID.TID 0000.0001) // Begin MONITOR dynamic field statistics
(PID.TID 0000.0001) // =======================================================
(PID.TID 0000.0001) %MON time_tsnumber                =                   865
(PID.TID 0000.0001) %MON time_secondsf                =   8.6500000000000E+04
(PID.TID 0000.0001) %MON dynstat_eta_max              =   5.7978692507645E+00
(PID.TID 0000.0001) %MON dynstat_eta_min              =  -1.4174169282947E+01
(PID.TID 0000.0001) %MON dynstat_eta_mean             =  -2.5257442997521E+00
(PID.TID 0000.0001) %MON dynstat_eta_sd               =   4.9415637162073E+00
(PID.TID 0000.0001) %MON dynstat_eta_del2             =   1.9058299219820E-01
(PID.TID 0000.0001) %MON dynstat_uvel_max             =   3.7949337484164E-03
(PID.TID 0000.0001) %MON dynstat_uvel_min             =  -1.4778887644072E-02
(PID.TID 0000.0001) %MON dynstat_uvel_mean            =  -1.3184990052067E-09
(PID.TID 0000.0001) %MON dynstat_uvel_sd              =   3.8995763113037E-04
(PID.TID 0000.0001) %MON dynstat_uvel_del2            =   6.3543197167866E-07
(PID.TID 0000.0001) %MON dynstat_vvel_max             =   1.1421002947521E-02
(PID.TID 0000.0001) %MON dynstat_vvel_min             =  -4.1192876027898E-03
(PID.TID 0000.0001) %MON dynstat_vvel_mean            =  -1.5947945321668E-08
(PID.TID 0000.0001) %MON dynstat_vvel_sd              =   2.1971879032687E-04
(PID.TID 0000.0001) %MON dynstat_vvel_del2            =   5.8121474711389E-07
(PID.TID 0000.0001) %MON dynstat_wvel_max             =   5.9097280587003E-04
(PID.TID 0000.0001) %MON dynstat_wvel_min             =  -6.0193000096633E-04
(PID.TID 0000.0001) %MON dynstat_wvel_mean            =   2.2111230764794E-10
(PID.TID 0000.0001) %MON dynstat_wvel_sd              =   1.1610338216223E-05
(PID.TID 0000.0001) %MON dynstat_wvel_del2            =   4.7566373539589E-08
(PID.TID 0000.0001) %MON dynstat_theta_max            =   1.2000000000000E+00
(PID.TID 0000.0001) %MON dynstat_theta_min            =  -1.0000000000000E+00
(PID.TID 0000.0001) %MON dynstat_theta_mean           =   5.6528767007217E-01
(PID.TID 0000.0001) %MON dynstat_theta_sd             =   8.4900620961511E-01
(PID.TID 0000.0001) %MON dynstat_theta_del2           =   1.6295670950945E-06
(PID.TID 0000.0001) %MON dynstat_salt_max             =   3.4700000000000E+01
(PID.TID 0000.0001) %MON dynstat_salt_min             =   3.4000000000000E+01
(PID.TID 0000.0001) %MON dynstat_salt_mean            =   3.4498028899930E+01
(PID.TID 0000.0001) %MON dynstat_salt_sd              =   2.7013762084489E-01
(PID.TID 0000.0001) %MON dynstat_salt_del2            =   6.4181929872824E-07
(PID.TID 0000.0001) %MON advcfl_uvel_max              =   1.4778887644072E-03
(PID.TID 0000.0001) %MON advcfl_vvel_max              =   1.1421002947521E-03
(PID.TID 0000.0001) %MON advcfl_wvel_max              =   3.0096500048316E-03
(PID.TID 0000.0001) %MON advcfl_W_hf_max              =   3.0096500048316E-03
(PID.TID 0000.0001) %MON pe_b_mean                    =  -6.8245563662934E-01
(PID.TID 0000.0001) %MON ke_max                       =   6.6929747429948E-05
(PID.TID 0000.0001) %MON ke_mean                      =   9.8741593144053E-08
(PID.TID 0000.0001) %MON ke_vol                       =   4.6182970573037E+12
(PID.TID 0000.0001) // =======================================================
(PID.TID 0000.0001) // End MONITOR dynamic field statistics
(PID.TID 0000.0001) // =======================================================
(PID.TID 0000.0001) // =======================================================
(PID.TID 0000.0001) // Begin OBCS MONITOR field statistics
(PID.TID 0000.0001) // =======================================================
(PID.TID 0000.0001) %MON obc_N_vVel_max               =  -3.5074840112105E-08
(PID.TID 0000.0001) %MON obc_N_vVel_min               =  -3.5074840112106E-08
(PID.TID 0000.0001) %MON obc_N_vVel_mean              =  -3.5074840112105E-08
(PID.TID 0000.0001) %MON obc_N_vVel_sd                =   1.0676628719050E-14
(PID.TID 0000.0001) %MON obc_N_vVel_Int               =  -2.3149394473989E+00
(PID.TID 0000.0001) // =======================================================
(PID.TID 0000.0001) // End OBCS MONITOR field statistics
(PID.TID 0000.0001) // =======================================================
(PID.TID 0000.0001) %CHECKPOINT       865 ckptA
(PID.TID 0000.0001)   Seconds in section "ALL                    [THE_MODEL_MAIN]":
(PID.TID 0000.0001)           User time:   16.847918603569269
(PID.TID 0000.0001)         System time:  0.15847599506378174
(PID.TID 0000.0001)     Wall clock time:   17.006564855575562
(PID.TID 0000.0001)          No. starts:           1
(PID.TID 0000.0001)           No. stops:           1
(PID.TID 0000.0001)   Seconds in section "INITIALISE_FIXED       [THE_MODEL_MAIN]":
(PID.TID 0000.0001)           User time:   1.2370999902486801E-002
(PID.TID 0000.0001)         System time:   1.3488993048667908E-002
(PID.TID 0000.0001)     Wall clock time:   2.6130914688110352E-002
(PID.TID 0000.0001)          No. starts:           1
(PID.TID 0000.0001)           No. stops:           1
(PID.TID 0000.0001)   Seconds in section "THE_MAIN_LOOP          [THE_MODEL_MAIN]":
(PID.TID 0000.0001)           User time:   16.835543695837259
(PID.TID 0000.0001)         System time:  0.14497698843479156
(PID.TID 0000.0001)     Wall clock time:   16.980424165725708
(PID.TID 0000.0001)          No. starts:           1
(PID.TID 0000.0001)           No. stops:           1
(PID.TID 0000.0001)   Seconds in section "INITIALISE_VARIA    [THE_MAIN_LOOP]":
(PID.TID 0000.0001)           User time:   1.6110999509692192E-002
(PID.TID 0000.0001)         System time:   7.1559995412826538E-003
(PID.TID 0000.0001)     Wall clock time:   2.3267984390258789E-002
(PID.TID 0000.0001)          No. starts:           1
(PID.TID 0000.0001)           No. stops:           1
(PID.TID 0000.0001)   Seconds in section "MAIN LOOP           [THE_MAIN_LOOP]":
(PID.TID 0000.0001)           User time:   16.819426879286766
(PID.TID 0000.0001)         System time:  0.13781398534774780
(PID.TID 0000.0001)     Wall clock time:   16.957144021987915
(PID.TID 0000.0001)          No. starts:           1
(PID.TID 0000.0001)           No. stops:           1
(PID.TID 0000.0001)   Seconds in section "MAIN_DO_LOOP        [THE_MAIN_LOOP]":
(PID.TID 0000.0001)           User time:   16.816527418792248
(PID.TID 0000.0001)         System time:  0.13774202764034271
(PID.TID 0000.0001)     Wall clock time:   16.954142093658447
(PID.TID 0000.0001)          No. starts:         865
(PID.TID 0000.0001)           No. stops:         865
(PID.TID 0000.0001)   Seconds in section "FORWARD_STEP        [MAIN_DO_LOOP]":
(PID.TID 0000.0001)           User time:   16.810439527034760
(PID.TID 0000.0001)         System time:  0.13759596645832062
(PID.TID 0000.0001)     Wall clock time:   16.947928667068481
(PID.TID 0000.0001)          No. starts:         865
(PID.TID 0000.0001)           No. stops:         865
(PID.TID 0000.0001)   Seconds in section "SHELFICE_REMESHING     [FORWARD_STEP]":
(PID.TID 0000.0001)           User time:   3.6907862871885300E-002
(PID.TID 0000.0001)         System time:   1.3949871063232422E-003
(PID.TID 0000.0001)     Wall clock time:   3.8301467895507812E-002
(PID.TID 0000.0001)          No. starts:         865
(PID.TID 0000.0001)           No. stops:         865
(PID.TID 0000.0001)   Seconds in section "DO_STATEVARS_DIAGS  [FORWARD_STEP]":
(PID.TID 0000.0001)           User time:  0.30625810846686363
(PID.TID 0000.0001)         System time:   5.4479092359542847E-003
(PID.TID 0000.0001)     Wall clock time:  0.31215763092041016
(PID.TID 0000.0001)          No. starts:        2595
(PID.TID 0000.0001)           No. stops:        2595
(PID.TID 0000.0001)   Seconds in section "LOAD_FIELDS_DRIVER  [FORWARD_STEP]":
(PID.TID 0000.0001)           User time:   9.0225636959075928E-003
(PID.TID 0000.0001)         System time:   2.1703541278839111E-004
(PID.TID 0000.0001)     Wall clock time:   9.2017650604248047E-003
(PID.TID 0000.0001)          No. starts:         865
(PID.TID 0000.0001)           No. stops:         865
(PID.TID 0000.0001)   Seconds in section "EXTERNAL_FLDS_LOAD [LOAD_FLDS_DRIVER]":
(PID.TID 0000.0001)           User time:   3.0088350176811218E-003
(PID.TID 0000.0001)         System time:   7.0989131927490234E-005
(PID.TID 0000.0001)     Wall clock time:   3.1168460845947266E-003
(PID.TID 0000.0001)          No. starts:         865
(PID.TID 0000.0001)           No. stops:         865
(PID.TID 0000.0001)   Seconds in section "DO_ATMOSPHERIC_PHYS [FORWARD_STEP]":
(PID.TID 0000.0001)           User time:   3.3826306462287903E-003
(PID.TID 0000.0001)         System time:   7.2017312049865723E-005
(PID.TID 0000.0001)     Wall clock time:   3.4663677215576172E-003
(PID.TID 0000.0001)          No. starts:         865
(PID.TID 0000.0001)           No. stops:         865
(PID.TID 0000.0001)   Seconds in section "DO_OCEANIC_PHYS     [FORWARD_STEP]":
(PID.TID 0000.0001)           User time:   1.0096078440546989
(PID.TID 0000.0001)         System time:   2.2570013999938965E-002
(PID.TID 0000.0001)     Wall clock time:   1.0325188636779785
(PID.TID 0000.0001)          No. starts:         865
(PID.TID 0000.0001)           No. stops:         865
(PID.TID 0000.0001)   Seconds in section "SHELFICE_THERMODYNAMICS [DO_OCEANIC_PHYS]":
(PID.TID 0000.0001)           User time:   8.4586102515459061E-002
(PID.TID 0000.0001)         System time:   1.9869357347488403E-003
(PID.TID 0000.0001)     Wall clock time:   8.6669683456420898E-002
(PID.TID 0000.0001)          No. starts:         865
(PID.TID 0000.0001)           No. stops:         865
(PID.TID 0000.0001)   Seconds in section "DYNAMICS            [FORWARD_STEP]":
(PID.TID 0000.0001)           User time:   3.2541877441108227
(PID.TID 0000.0001)         System time:   2.6583954691886902E-002
(PID.TID 0000.0001)     Wall clock time:   3.2817196846008301
(PID.TID 0000.0001)          No. starts:         865
(PID.TID 0000.0001)           No. stops:         865
(PID.TID 0000.0001)   Seconds in section "UPDATE_SURF_DR      [FORWARD_STEP]":
(PID.TID 0000.0001)           User time:   2.1711431443691254E-002
(PID.TID 0000.0001)         System time:   1.1202692985534668E-004
(PID.TID 0000.0001)     Wall clock time:   2.1839618682861328E-002
(PID.TID 0000.0001)          No. starts:         865
(PID.TID 0000.0001)           No. stops:         865
(PID.TID 0000.0001)   Seconds in section "UPDATE_CG2D         [FORWARD_STEP]":
(PID.TID 0000.0001)           User time:   8.0854415893554688E-002
(PID.TID 0000.0001)         System time:   5.0799548625946045E-004
(PID.TID 0000.0001)     Wall clock time:   8.1495761871337891E-002
(PID.TID 0000.0001)          No. starts:         865
(PID.TID 0000.0001)           No. stops:         865
(PID.TID 0000.0001)   Seconds in section "SOLVE_FOR_PRESSURE  [FORWARD_STEP]":
(PID.TID 0000.0001)           User time:   1.9712670370936394
(PID.TID 0000.0001)         System time:   1.8448963761329651E-002
(PID.TID 0000.0001)     Wall clock time:   1.9900379180908203
(PID.TID 0000.0001)          No. starts:         865
(PID.TID 0000.0001)           No. stops:         865
(PID.TID 0000.0001)   Seconds in section "MOM_CORRECTION_STEP [FORWARD_STEP]":
(PID.TID 0000.0001)           User time:  0.17806296795606613
(PID.TID 0000.0001)         System time:   1.6470104455947876E-003
(PID.TID 0000.0001)     Wall clock time:  0.17993640899658203
(PID.TID 0000.0001)          No. starts:         865
(PID.TID 0000.0001)           No. stops:         865
(PID.TID 0000.0001)   Seconds in section "INTEGR_CONTINUITY   [FORWARD_STEP]":
(PID.TID 0000.0001)           User time:  0.23705204203724861
(PID.TID 0000.0001)         System time:   2.4120062589645386E-003
(PID.TID 0000.0001)     Wall clock time:  0.23965692520141602
(PID.TID 0000.0001)          No. starts:         865
(PID.TID 0000.0001)           No. stops:         865
(PID.TID 0000.0001)   Seconds in section "CALC_SURF_DR      [FORWARD_STEP]":
(PID.TID 0000.0001)           User time:   5.3083050996065140E-002
(PID.TID 0000.0001)         System time:   4.9097836017608643E-004
(PID.TID 0000.0001)     Wall clock time:   5.3642034530639648E-002
(PID.TID 0000.0001)          No. starts:         865
(PID.TID 0000.0001)           No. stops:         865
(PID.TID 0000.0001)   Seconds in section "BLOCKING_EXCHANGES  [FORWARD_STEP]":
(PID.TID 0000.0001)           User time:  0.61659744754433632
(PID.TID 0000.0001)         System time:   3.3720731735229492E-003
(PID.TID 0000.0001)     Wall clock time:  0.62060284614562988
(PID.TID 0000.0001)          No. starts:        1730
(PID.TID 0000.0001)           No. stops:        1730
(PID.TID 0000.0001)   Seconds in section "THERMODYNAMICS      [FORWARD_STEP]":
(PID.TID 0000.0001)           User time:   5.6753363609313965
(PID.TID 0000.0001)         System time:   1.6382038593292236E-002
(PID.TID 0000.0001)     Wall clock time:   5.6929223537445068
(PID.TID 0000.0001)          No. starts:         865
(PID.TID 0000.0001)           No. stops:         865
(PID.TID 0000.0001)   Seconds in section "TRC_CORRECTION_STEP [FORWARD_STEP]":
(PID.TID 0000.0001)           User time:   1.5623082704842091
(PID.TID 0000.0001)         System time:   3.3700466156005859E-004
(PID.TID 0000.0001)     Wall clock time:   1.5629985332489014
(PID.TID 0000.0001)          No. starts:         865
(PID.TID 0000.0001)           No. stops:         865
(PID.TID 0000.0001)   Seconds in section "MONITOR             [FORWARD_STEP]":
(PID.TID 0000.0001)           User time:   1.5998619161546230
(PID.TID 0000.0001)         System time:   2.3012042045593262E-002
(PID.TID 0000.0001)     Wall clock time:   1.6233825683593750
(PID.TID 0000.0001)          No. starts:         865
(PID.TID 0000.0001)           No. stops:         865
(PID.TID 0000.0001)   Seconds in section "DO_THE_MODEL_IO     [FORWARD_STEP]":
(PID.TID 0000.0001)           User time:   8.3115011453628540E-002
(PID.TID 0000.0001)         System time:   1.5669912099838257E-003
(PID.TID 0000.0001)     Wall clock time:   8.4704637527465820E-002
(PID.TID 0000.0001)          No. starts:         865
(PID.TID 0000.0001)           No. stops:         865
(PID.TID 0000.0001)   Seconds in section "DO_WRITE_PICKUP     [FORWARD_STEP]":
(PID.TID 0000.0001)           User time:   3.5835914313793182E-002
(PID.TID 0000.0001)         System time:   1.2044921517372131E-002
(PID.TID 0000.0001)     Wall clock time:   4.7871351242065430E-002
(PID.TID 0000.0001)          No. starts:         865
(PID.TID 0000.0001)           No. stops:         865
(PID.TID 0000.0001) // ======================================================
(PID.TID 0000.0001) // Tile <-> Tile communication statistics
(PID.TID 0000.0001) // ======================================================
(PID.TID 0000.0001) // o Tile number: 000001
(PID.TID 0000.0001) //         No. X exchanges =              0
(PID.TID 0000.0001) //            Max. X spins =              0
(PID.TID 0000.0001) //            Min. X spins =     1000000000
(PID.TID 0000.0001) //          Total. X spins =              0
(PID.TID 0000.0001) //            Avg. X spins =       0.00E+00
(PID.TID 0000.0001) //         No. Y exchanges =              0
(PID.TID 0000.0001) //            Max. Y spins =              0
(PID.TID 0000.0001) //            Min. Y spins =     1000000000
(PID.TID 0000.0001) //          Total. Y spins =              0
(PID.TID 0000.0001) //            Avg. Y spins =       0.00E+00
(PID.TID 0000.0001) // o Thread number: 000001
(PID.TID 0000.0001) //            No. barriers =         498906
(PID.TID 0000.0001) //      Max. barrier spins =              1
(PID.TID 0000.0001) //      Min. barrier spins =              1
(PID.TID 0000.0001) //     Total barrier spins =         498906
(PID.TID 0000.0001) //      Avg. barrier spins =       1.00E+00
PROGRAM MAIN: Execution ended Normally
