(PID.TID 0000.0001) 
(PID.TID 0000.0001) // ======================================================
(PID.TID 0000.0001) //                      MITgcm UV
(PID.TID 0000.0001) //                      =========
(PID.TID 0000.0001) // ======================================================
(PID.TID 0000.0001) // execution environment starting up...
(PID.TID 0000.0001) 
(PID.TID 0000.0001) // MITgcmUV version:  checkpoint67v
(PID.TID 0000.0001) // Build user:        bgetraer
(PID.TID 0000.0001) // Build host:        totten
(PID.TID 0000.0001) // Build date:        Wed Jul 26 11:53:30 AM EDT 2023
(PID.TID 0000.0001) 
(PID.TID 0000.0001) // =======================================================
(PID.TID 0000.0001) // Execution Environment parameter file "eedata"
(PID.TID 0000.0001) // =======================================================
(PID.TID 0000.0001) ># Example "eedata" file
(PID.TID 0000.0001) ># Lines beginning "#" are comments
(PID.TID 0000.0001) ># nTx - No. threads per process in X
(PID.TID 0000.0001) ># nTy - No. threads per process in Y
(PID.TID 0000.0001) > &EEPARMS
(PID.TID 0000.0001) > useCoupler=.FALSE.,
(PID.TID 0000.0001) > debugMode=.FALSE.,
(PID.TID 0000.0001) > /
(PID.TID 0000.0001) ># Note: Some systems use & as the
(PID.TID 0000.0001) ># namelist terminator. Other systems
(PID.TID 0000.0001) ># use a / character (as shown here).
(PID.TID 0000.0001) 
(PID.TID 0000.0001) // =======================================================
(PID.TID 0000.0001) // Computational Grid Specification ( see files "SIZE.h" )
(PID.TID 0000.0001) //                                  ( and "eedata"       )
(PID.TID 0000.0001) // =======================================================
(PID.TID 0000.0001)      nPx =    2 ; /* No. processes in X */
(PID.TID 0000.0001)      nPy =    6 ; /* No. processes in Y */
(PID.TID 0000.0001)      nSx =    1 ; /* No. tiles in X per process */
(PID.TID 0000.0001)      nSy =    1 ; /* No. tiles in Y per process */
(PID.TID 0000.0001)      sNx =   31 ; /* Tile size in X */
(PID.TID 0000.0001)      sNy =   17 ; /* Tile size in Y */
(PID.TID 0000.0001)      OLx =    3 ; /* Tile overlap distance in X */
(PID.TID 0000.0001)      OLy =    3 ; /* Tile overlap distance in Y */
(PID.TID 0000.0001)      nTx =    1 ; /* No. threads in X per process */
(PID.TID 0000.0001)      nTy =    1 ; /* No. threads in Y per process */
(PID.TID 0000.0001)       Nr =   55 ; /* No. levels in the vertical   */
(PID.TID 0000.0001)       Nx =   62 ; /* Total domain size in X ( = nPx*nSx*sNx ) */
(PID.TID 0000.0001)       Ny =  102 ; /* Total domain size in Y ( = nPy*nSy*sNy ) */
(PID.TID 0000.0001)   nTiles =    1 ; /* Total no. tiles per process ( = nSx*nSy ) */
(PID.TID 0000.0001)   nProcs =   12 ; /* Total no. processes ( = nPx*nPy ) */
(PID.TID 0000.0001) nThreads =    1 ; /* Total no. threads per process ( = nTx*nTy ) */
(PID.TID 0000.0001) usingMPI =    T ; /* Flag used to control whether MPI is in use */
(PID.TID 0000.0001)                   /*  note: To execute a program with MPI calls */
(PID.TID 0000.0001)                   /*  it must be launched appropriately e.g     */
(PID.TID 0000.0001)                   /*  "mpirun -np 64 ......"                    */
(PID.TID 0000.0001) useCoupler=   F ; /* Flag used to control communications with   */
(PID.TID 0000.0001)                   /*  other model components, through a coupler */
(PID.TID 0000.0001) useNest2W_parent =    F ;/* Control 2-W Nesting comm */
(PID.TID 0000.0001) useNest2W_child  =    F ;/* Control 2-W Nesting comm */
(PID.TID 0000.0001) debugMode =    F ; /* print debug msg. (sequence of S/R calls)  */
(PID.TID 0000.0001) printMapIncludesZeros=    F ; /* print zeros in Std.Output maps */
(PID.TID 0000.0001) maxLengthPrt1D=   65 /* maxLength of 1D array printed to StdOut */
(PID.TID 0000.0001) 
(PID.TID 0000.0001) ======= Starting MPI parallel Run =========
(PID.TID 0000.0001)  My Processor Name (len:  6 ) = totten
(PID.TID 0000.0001)  Located at (  0,  0) on processor grid (0:  1,0:  5)
(PID.TID 0000.0001)  Origin at  (     1,     1) on global grid (1:    62,1:   102)
(PID.TID 0000.0001)  North neighbor = processor 0001
(PID.TID 0000.0001)  South neighbor = processor 0005
(PID.TID 0000.0001)   East neighbor = processor 0006
(PID.TID 0000.0001)   West neighbor = processor 0006
(PID.TID 0000.0001) // ======================================================
(PID.TID 0000.0001) // Mapping of tiles to threads
(PID.TID 0000.0001) // ======================================================
(PID.TID 0000.0001) // -o- Thread   1, tiles (   1:   1,   1:   1)
(PID.TID 0000.0001) 
(PID.TID 0000.0001) // ======================================================
(PID.TID 0000.0001) // Tile <-> Tile connectvity table
(PID.TID 0000.0001) // ======================================================
(PID.TID 0000.0001) // Tile number: 000001 (process no. = 000000)
(PID.TID 0000.0001) //        WEST: Tile = 000002, Process = 000006, Comm = messages
(PID.TID 0000.0001) //                bi = 000001, bj = 000001
(PID.TID 0000.0001) //        EAST: Tile = 000002, Process = 000006, Comm = messages
(PID.TID 0000.0001) //                bi = 000001, bj = 000001
(PID.TID 0000.0001) //       SOUTH: Tile = 000011, Process = 000005, Comm = messages
(PID.TID 0000.0001) //                bi = 000001, bj = 000001
(PID.TID 0000.0001) //       NORTH: Tile = 000003, Process = 000001, Comm = messages
(PID.TID 0000.0001) //                bi = 000001, bj = 000001
(PID.TID 0000.0001) 
(PID.TID 0000.0001)  INI_PARMS: opening model parameter file "data"
(PID.TID 0000.0001)  OPEN_COPY_DATA_FILE: opening file data
(PID.TID 0000.0001) // =======================================================
(PID.TID 0000.0001) // Parameter file "data"
(PID.TID 0000.0001) // =======================================================
(PID.TID 0000.0001) ># ====================
(PID.TID 0000.0001) ># | Model parameters |
(PID.TID 0000.0001) ># ====================
(PID.TID 0000.0001) >#
(PID.TID 0000.0001) ># Continuous equation parameters
(PID.TID 0000.0001) > &PARM01
(PID.TID 0000.0001) ># momstepping=.FALSE.,
(PID.TID 0000.0001) ># tempstepping=.FALSE.,
(PID.TID 0000.0001) ># saltstepping=.FALSE.,
(PID.TID 0000.0001) ># BENJY: these should be of form Xref=nz*X_0. Why is nz 40 instead of 55?
(PID.TID 0000.0001) ># reference potential Temperature for each layer (deg C)
(PID.TID 0000.0001) > Tref = 40*-1.9,
(PID.TID 0000.0001) ># reference Salinity for each layer (ppt)
(PID.TID 0000.0001) > Sref = 40*34.4,
(PID.TID 0000.0001) > viscAr=1.E-3,
(PID.TID 0000.0001) > viscAh=10.0,
(PID.TID 0000.0001) > no_slip_sides=.FALSE.,
(PID.TID 0000.0001) > no_slip_bottom=.FALSE.,
(PID.TID 0000.0001) > diffKhT= 10.0,
(PID.TID 0000.0001) > diffKrT=5.E-5,
(PID.TID 0000.0001) > diffKhS= 10.0,
(PID.TID 0000.0001) > diffKrS=5.E-5,
(PID.TID 0000.0001) > bottomDragQuadratic=2.5E-3,
(PID.TID 0000.0001) > staggerTimestep = .true.,
(PID.TID 0000.0001) > tempAdvScheme=33,
(PID.TID 0000.0001) > saltAdvScheme=33,
(PID.TID 0000.0001) ># vectorInvariantMomentum = .true.,
(PID.TID 0000.0001) ># momImplVertAdv=.true.,
(PID.TID 0000.0001) ># tempImplVertAdv=.true.,
(PID.TID 0000.0001) ># saltImplVertAdv=.true.,
(PID.TID 0000.0001) > eosType='JMD95Z',
(PID.TID 0000.0001) >#tAlpha = 2.E-4,
(PID.TID 0000.0001) >#sBeta  = 7.4E-4,
(PID.TID 0000.0001) > HeatCapacity_cp = 3974.0,
(PID.TID 0000.0001) > rhoConst=1000.,
(PID.TID 0000.0001) > rhoNil=1000.,
(PID.TID 0000.0001) > gravity=9.81,
(PID.TID 0000.0001) > gBaro=9.81,
(PID.TID 0000.0001) > rigidLid=.FALSE.,
(PID.TID 0000.0001) > implicitFreeSurface=.TRUE.,
(PID.TID 0000.0001) > useRealFreshWaterFlux = .true.,
(PID.TID 0000.0001) > exactConserv=.TRUE.,
(PID.TID 0000.0001) > nonlinFreeSurf=4,
(PID.TID 0000.0001) > hFacInf=0.2,
(PID.TID 0000.0001) > hFacSup=2.0,
(PID.TID 0000.0001) > hFacMin=0.2,
(PID.TID 0000.0001) > readBinaryPrec=64,
(PID.TID 0000.0001) > debuglevel = 1,
(PID.TID 0000.0001) > selectCoriMap = 0,
(PID.TID 0000.0001) > f0 = -1.e-4,
(PID.TID 0000.0001) > useSingleCpuIO=.TRUE.,
(PID.TID 0000.0001) > globalFiles=.TRUE.,
(PID.TID 0000.0001) > useCoriolis=.TRUE.,
(PID.TID 0000.0001) > /
(PID.TID 0000.0001) >
(PID.TID 0000.0001) ># Elliptic solver parameters
(PID.TID 0000.0001) > &PARM02
(PID.TID 0000.0001) > cg2dMaxIters=1000,
(PID.TID 0000.0001) > cg2dTargetResidual=1.E-11,
(PID.TID 0000.0001) ># cg2dMinColumnEps = 1.
(PID.TID 0000.0001) ># pReleaseVisc = 1.
(PID.TID 0000.0001) > cg3dMaxIters=400,
(PID.TID 0000.0001) > cg3dTargetResidual=1.E-13,
(PID.TID 0000.0001) > /
(PID.TID 0000.0001) >
(PID.TID 0000.0001) >#Time stepping parameters
(PID.TID 0000.0001) > &PARM03
(PID.TID 0000.0001) > niter0 = 864
(PID.TID 0000.0001) > deltaT=100.0,
(PID.TID 0000.0001) > ntimesteps = 865
(PID.TID 0000.0001) > cAdjFreq = -1.,
(PID.TID 0000.0001) > pChkptFreq = 86400
(PID.TID 0000.0001) > chkptFreq=864000.0,
(PID.TID 0000.0001) > dumpFreq=864000,
(PID.TID 0000.0001) ># pickupsuff='ckptA'
(PID.TID 0000.0001) > monitorFreq=100.0,
(PID.TID 0000.0001) > monitorSelect=1,
(PID.TID 0000.0001) > /
(PID.TID 0000.0001) >
(PID.TID 0000.0001) ># Gridding parameters
(PID.TID 0000.0001) > &PARM04
(PID.TID 0000.0001) > usingCartesianGrid=.TRUE.,
(PID.TID 0000.0001) > delX=62*1000,
(PID.TID 0000.0001) > delY=102*1000,
(PID.TID 0000.0001) > delR=55*20,
(PID.TID 0000.0001) > xgOrigin=-1000,
(PID.TID 0000.0001) > ygOrigin=-2000,
(PID.TID 0000.0001) > /
(PID.TID 0000.0001) >
(PID.TID 0000.0001) ># Input datasets
(PID.TID 0000.0001) > &PARM05
(PID.TID 0000.0001) > bathyFile='BATHY60.box',
(PID.TID 0000.0001) > hydrogThetaFile='theta.init',	
(PID.TID 0000.0001) > hydrogSaltFile='salt.init',
(PID.TID 0000.0001) > pSurfInitFile='etainit.round.bin',
(PID.TID 0000.0001) > /
(PID.TID 0000.0001) 
(PID.TID 0000.0001)  INI_PARMS ; starts to read PARM01
(PID.TID 0000.0001)  INI_PARMS ; read PARM01 : OK
(PID.TID 0000.0001)  INI_PARMS ; starts to read PARM02
(PID.TID 0000.0001)  INI_PARMS ; read PARM02 : OK
(PID.TID 0000.0001)  INI_PARMS ; starts to read PARM03
(PID.TID 0000.0001)  INI_PARMS ; read PARM03 : OK
(PID.TID 0000.0001)  INI_PARMS ; starts to read PARM04
(PID.TID 0000.0001)  INI_PARMS ; read PARM04 : OK
(PID.TID 0000.0001)  INI_PARMS ; starts to read PARM05
(PID.TID 0000.0001)  INI_PARMS ; read PARM05 : OK
(PID.TID 0000.0001)  INI_PARMS: finished reading file "data"
(PID.TID 0000.0001)  PACKAGES_BOOT: opening data.pkg
(PID.TID 0000.0001)  OPEN_COPY_DATA_FILE: opening file data.pkg
(PID.TID 0000.0001) // =======================================================
(PID.TID 0000.0001) // Parameter file "data.pkg"
(PID.TID 0000.0001) // =======================================================
(PID.TID 0000.0001) ># Packages (lines beginning "#" are comments)
(PID.TID 0000.0001) > &PACKAGES
(PID.TID 0000.0001) > useOBCS=.TRUE.,
(PID.TID 0000.0001) > useShelfIce=.TRUE.,
(PID.TID 0000.0001) > useDiagnostics = .TRUE.,
(PID.TID 0000.0001) > /
(PID.TID 0000.0001) 
(PID.TID 0000.0001)  PACKAGES_BOOT: finished reading data.pkg
(PID.TID 0000.0001)  PACKAGES_BOOT: On/Off package Summary
 --------  pkgs with a standard "usePKG" On/Off switch in "data.pkg":  --------
 pkg/obcs                 compiled   and   used ( useOBCS                  = T )
 pkg/shelfice             compiled   and   used ( useShelfIce              = T )
 pkg/diagnostics          compiled   and   used ( useDiagnostics           = T )
 -------- pkgs without standard "usePKG" On/Off switch in "data.pkg":  --------
 pkg/generic_advdiff      compiled   and   used ( useGAD                   = T )
 pkg/mom_common           compiled   and   used ( momStepping              = T )
 pkg/mom_vecinv           compiled but not used ( +vectorInvariantMomentum = F )
 pkg/mom_fluxform         compiled   and   used ( & not vectorInvariantMom = T )
 pkg/monitor              compiled   and   used ( monitorFreq > 0.         = T )
 pkg/debug                compiled but not used ( debugMode                = F )
 pkg/rw                   compiled   and   used
 pkg/mdsio                compiled   and   used
(PID.TID 0000.0001)  PACKAGES_BOOT: End of package Summary
(PID.TID 0000.0001) 
(PID.TID 0000.0001)  OBCS_READPARMS: opening data.obcs
(PID.TID 0000.0001)  OPEN_COPY_DATA_FILE: opening file data.obcs
(PID.TID 0000.0001) // =======================================================
(PID.TID 0000.0001) // Parameter file "data.obcs"
(PID.TID 0000.0001) // =======================================================
(PID.TID 0000.0001) ># Open-boundaries
(PID.TID 0000.0001) > &OBCS_PARM01
(PID.TID 0000.0001) > OB_Jnorth=62*102,
(PID.TID 0000.0001) > useOBCSprescribe=.true.,
(PID.TID 0000.0001) > useOBCSsponge=.true.,
(PID.TID 0000.0001) > useLinearSponge = .TRUE.,
(PID.TID 0000.0001) ># OBWuFile='uvel.obw',
(PID.TID 0000.0001) ># OBNvFile='vvel.obw',
(PID.TID 0000.0001) > OBNtFile='theta.obw',
(PID.TID 0000.0001) > OBNsFile='salt.obw',
(PID.TID 0000.0001) > useOrlanskiNorth=.FALSE.,
(PID.TID 0000.0001) > useOBCSbalance=.TRUE.,
(PID.TID 0000.0001) > OBCS_balanceFacN=1.,
(PID.TID 0000.0001) > /
(PID.TID 0000.0001) >
(PID.TID 0000.0001) ># Orlanski parameters
(PID.TID 0000.0001) > &OBCS_PARM02
(PID.TID 0000.0001) >#Cmax=0.45,
(PID.TID 0000.0001) >#cVelTimeScale=1000.,
(PID.TID 0000.0001) > /
(PID.TID 0000.0001) >
(PID.TID 0000.0001) ># Sponge layer parameters
(PID.TID 0000.0001) > &OBCS_PARM03
(PID.TID 0000.0001) > spongeThickness = 5,
(PID.TID 0000.0001) > Vrelaxobcsbound = 864000.,
(PID.TID 0000.0001) > Urelaxobcsbound = 864000.,
(PID.TID 0000.0001) > /
(PID.TID 0000.0001) 
(PID.TID 0000.0001)  OBCS_READPARMS: finished reading data.obcs
(PID.TID 0000.0001)  OB_indexUnset = /* unset OB index value (i.e. no OB) */
(PID.TID 0000.0001)                       0
(PID.TID 0000.0001)     ;
(PID.TID 0000.0001)  Northern OB global indices : OB_Jnorth =
(PID.TID 0000.0001)    62 @      102                            /* I =  1: 62 */
(PID.TID 0000.0001)  Southern OB global indices : OB_Jsouth =
(PID.TID 0000.0001)    62 @        0                            /* I =  1: 62 */
(PID.TID 0000.0001)  Eastern  OB global indices : OB_Ieast =
(PID.TID 0000.0001)   102 @        0                            /* J =  1:102 */
(PID.TID 0000.0001)  Western  OB global indices : OB_Iwest =
(PID.TID 0000.0001)   102 @        0                            /* J =  1:102 */
(PID.TID 0000.0001) 
(PID.TID 0000.0001)  SHELFICE_READPARMS: opening data.shelfice
(PID.TID 0000.0001)  OPEN_COPY_DATA_FILE: opening file data.shelfice
(PID.TID 0000.0001) // =======================================================
(PID.TID 0000.0001) // Parameter file "data.shelfice"
(PID.TID 0000.0001) // =======================================================
(PID.TID 0000.0001) ># ===================================
(PID.TID 0000.0001) ># | Parameters for SHELFICE package |
(PID.TID 0000.0001) ># ===================================
(PID.TID 0000.0001) > &SHELFICE_PARM01
(PID.TID 0000.0001) > SHELFICEwriteState = .true.,
(PID.TID 0000.0001) > SHELFICEconserve = .true.,
(PID.TID 0000.0001) > SHELFICEboundaryLayer = .true.,
(PID.TID 0000.0001) > SHELFICEtopoFile='shelftopo.round.bin',
(PID.TID 0000.0001) > SHI_withBL_realFWflux=.true.
(PID.TID 0000.0001) > SHELFICEmassFile = 'shelficemassinit.bin',
(PID.TID 0000.0001) > SHELFICEMassDynTendFile = 'shelfice_dmdt.bin'
(PID.TID 0000.0001) > SHELFICEuseGammaFrict = .true.,
(PID.TID 0000.0001) > SHELFICEDragQuadratic = 0.0097,
(PID.TID 0000.0001) > shiCdrag = 0.0097,
(PID.TID 0000.0001) > SHELFICEheatTransCoeff = 0.0135,
(PID.TID 0000.0001) > SHELFICEsaltTransCoeff = 0.000265,
(PID.TID 0000.0001) > SHELFICEMassStepping = .true.,
(PID.TID 0000.0001) > SHELFICERemeshFrequency = 3600.0,
(PID.TID 0000.0001) > SHELFICESplitThreshold =1.3,
(PID.TID 0000.0001) > SHELFICEMergeThreshold =0.29,
(PID.TID 0000.0001) > SHELFICE_conserve_ssh = .true.,
(PID.TID 0000.0001) > SHELFICEaddrunoff=.FALSE.
(PID.TID 0000.0001) > SHELFICESubglFluxFile='runoff_flux.bin'
(PID.TID 0000.0001) > /
(PID.TID 0000.0001) 
(PID.TID 0000.0001)  SHELFICE_READPARMS: finished reading data.shelfice
(PID.TID 0000.0001)  DIAGNOSTICS_READPARMS: opening data.diagnostics
(PID.TID 0000.0001)  OPEN_COPY_DATA_FILE: opening file data.diagnostics
(PID.TID 0000.0001) // =======================================================
(PID.TID 0000.0001) // Parameter file "data.diagnostics"
(PID.TID 0000.0001) // =======================================================
(PID.TID 0000.0001) ># Diagnostic Package Choices
(PID.TID 0000.0001) >#-----------------
(PID.TID 0000.0001) ># for each output-stream:
(PID.TID 0000.0001) >#  filename(n) : prefix of the output file name (only 8.c long) for outp.stream n
(PID.TID 0000.0001) >#  frequency(n):< 0 : write snap-shot output every |frequency| seconds
(PID.TID 0000.0001) >#               > 0 : write time-average output every frequency seconds
(PID.TID 0000.0001) >#  timePhase(n)     : write at time = timePhase + multiple of |frequency|
(PID.TID 0000.0001) >#  averagingFreq(n) : frequency (in s) for periodic averaging interval
(PID.TID 0000.0001) >#  averagingPhase(n): phase     (in s) for periodic averaging interval
(PID.TID 0000.0001) >#  repeatCycle(n)   : number of averaging intervals in 1 cycle
(PID.TID 0000.0001) >#  levels(:,n) : list of levels to write to file (Notes: declared as REAL)
(PID.TID 0000.0001) >#                 when this entry is missing, select all common levels of this list
(PID.TID 0000.0001) >#  fields(:,n) : list of diagnostics fields (8.c) (see "available_diagnostics.log"
(PID.TID 0000.0001) >#                 file for the list of all available diag. in this particular config)
(PID.TID 0000.0001) >#-----------------
(PID.TID 0000.0001) > &DIAGNOSTICS_LIST
(PID.TID 0000.0001) ># diag_mnc     = .FALSE.,
(PID.TID 0000.0001) ># dumpAtLast   = .TRUE.,
(PID.TID 0000.0001) >  fields(1:6,1) =
(PID.TID 0000.0001) >#       'ETAN    ','oceTAUX ','oceTAUY ',
(PID.TID 0000.0001) >#                 'oceQnet ','oceFWflx','MXLDEPTH',
(PID.TID 0000.0001) >                'SHIfwFlx','SHI_mass','SHIRshel',
(PID.TID 0000.0001) >                 'ETAN    ','SHIuStar','SHIForcT'
(PID.TID 0000.0001) >#                 'SHIuLocM','SHIvLocM','SHIwLocM','SHItLocM','SHIsLocM',
(PID.TID 0000.0001) >#		 'SHItLocB','SHIsLocB'
(PID.TID 0000.0001) >#                'SHIForcT','SHIForcS',
(PID.TID 0000.0001) >#                'surForcT','surForcS','TFLUX   ','SFLUX   ','oceFreez',
(PID.TID 0000.0001) >#                 'TRELAX  ','SRELAX  ',
(PID.TID 0000.0001) >#                'GM_VisbK',
(PID.TID 0000.0001) >#  fields(1,1)='ETAN'
(PID.TID 0000.0001) >   filename(1) = 'surfDiag',
(PID.TID 0000.0001) >   frequency(1) =  86400,
(PID.TID 0000.0001) >   fields(1:5,2) = 'UVEL    ','VVEL    ','WVEL    ',
(PID.TID 0000.0001) >                 'THETA   ','SALT    '
(PID.TID 0000.0001) >   filename(2) = 'dynDiag',
(PID.TID 0000.0001) >  frequency(2) =  2592000.,
(PID.TID 0000.0001) >  fields(1,3) = 'SHIfwFlx'
(PID.TID 0000.0001) >  filename(3) = 'SHICE_fwFluxtave'
(PID.TID 0000.0001) > frequency(3) = 86400
(PID.TID 0000.0001) >  fields(1,4) = 'SHI_mass'
(PID.TID 0000.0001) >  filename(4) = 'SHICE_mass'
(PID.TID 0000.0001) > frequency(4) = -86400
(PID.TID 0000.0001) > timephase(4) = 0
(PID.TID 0000.0001) >#   fields(1:5,3) = 'SI_Uvel ','SI_Vvel ','SI_Thick','SI_hmask','SI_float',
(PID.TID 0000.0001) >#   filename(3) = 'streamice',
(PID.TID 0000.0001) > frequency(3) = 86400
(PID.TID 0000.0001) >#  fields(1,3) = 'EXFpreci','EXFuwind','EXFvwind','EXFtaux ','EXFtauy ',
(PID.TID 0000.0001) >#                'EXFlwdn ','EXFswdn ','EXFatemp','EXFaqh  ','EXFpress',
(PID.TID 0000.0001) >#                'GM_PsiX ','GM_PsiY ',
(PID.TID 0000.0001) >#                'GM_Kwx  ','GM_Kwy  ','GM_Kwz  ',
(PID.TID 0000.0001) >#                'GM_Kux  ','GM_Kvy  ',
(PID.TID 0000.0001) >#                'GM_Kuz  ','GM_Kvz  ',
(PID.TID 0000.0001) >#- disable this output list by commenting out the file name
(PID.TID 0000.0001) >#  filename(3) = 'diagsEXF',
(PID.TID 0000.0001) > frequency(3) = 86400
(PID.TID 0000.0001) >#  fields(1,4) = 'ADVx_TH ','ADVy_TH ','ADVr_TH ',
(PID.TID 0000.0001) >#                'DIFx_TH ','DIFy_TH ','DFrE_TH ',
(PID.TID 0000.0001) >#                'DFrI_TH ',
(PID.TID 0000.0001) >#                'ADVx_SLT',
(PID.TID 0000.0001) >#  filename(4) = 'flxDiag',
(PID.TID 0000.0001) > frequency(4) = -86400
(PID.TID 0000.0001) > /
(PID.TID 0000.0001) >
(PID.TID 0000.0001) ># Parameter for Diagnostics of per level statistics:
(PID.TID 0000.0001) >#-----------------
(PID.TID 0000.0001) ># for each output-stream:
(PID.TID 0000.0001) >#  stat_fname(n) : prefix of the output file name (only 8.c long) for outp.stream n
(PID.TID 0000.0001) >#  stat_freq(n):< 0 : write snap-shot output every |stat_freq| seconds
(PID.TID 0000.0001) >#               > 0 : write time-average output every stat_freq seconds
(PID.TID 0000.0001) >#  stat_phase(n)    : write at time = stat_phase + multiple of |stat_freq|
(PID.TID 0000.0001) >#  stat_region(:,n) : list of "regions" (default: 1 region only=global)
(PID.TID 0000.0001) >#  stat_fields(:,n) : list of diagnostics fields (8.c) (see "available_diagnostics.log"
(PID.TID 0000.0001) >#                 file for the list of all available diag. in this particular config)
(PID.TID 0000.0001) >#-----------------
(PID.TID 0000.0001) > &DIAG_STATIS_PARMS
(PID.TID 0000.0001) >#- regional mask: 3 lat. band: 1 : y <= -24 ; 2 : -24<y<24 ; 3 : 24 <= y
(PID.TID 0000.0001) ># diagSt_regMaskFile='regMask_lat24.bin',
(PID.TID 0000.0001) ># nSetRegMskFile=1,
(PID.TID 0000.0001) ># set_regMask(1)= 1,  1,  1,
(PID.TID 0000.0001) ># val_regMask(1)= 1., 2., 3.,
(PID.TID 0000.0001) >#---
(PID.TID 0000.0001) >#stat_fields(1,1)= 'ETAN    ','UVEL    ','VVEL    ','WVEL    ',
(PID.TID 0000.0001) >#                  'THETA   ','SALT    ','SIarea  ','SIheff  ',
(PID.TID 0000.0001) >#   stat_fname(1)= 'dynStDiag',
(PID.TID 0000.0001) >#    stat_freq(1)= 864000.,
(PID.TID 0000.0001) > /
(PID.TID 0000.0001) >
(PID.TID 0000.0001) 
(PID.TID 0000.0001) S/R DIAGNOSTICS_READPARMS, read namelist "diagnostics_list": start
(PID.TID 0000.0001) S/R DIAGNOSTICS_READPARMS, read namelist "diagnostics_list": OK
(PID.TID 0000.0001) S/R DIAGNOSTICS_READPARMS, read namelist "DIAG_STATIS_PARMS": start
(PID.TID 0000.0001) S/R DIAGNOSTICS_READPARMS, read namelist "DIAG_STATIS_PARMS": OK
(PID.TID 0000.0001)  DIAGNOSTICS_READPARMS: global parameter summary:
(PID.TID 0000.0001)  dumpAtLast = /* always write time-ave diags at the end */
(PID.TID 0000.0001)                   F
(PID.TID 0000.0001)     ;
(PID.TID 0000.0001)  diag_mnc =   /* write NetCDF output files */
(PID.TID 0000.0001)                   F
(PID.TID 0000.0001)     ;
(PID.TID 0000.0001)  useMissingValue = /* put MissingValue where mask = 0 */
(PID.TID 0000.0001)                   F
(PID.TID 0000.0001)     ;
(PID.TID 0000.0001)  diagCG_maxIters = /* max number of iters in diag_cg2d */
(PID.TID 0000.0001)                    1000
(PID.TID 0000.0001)     ;
(PID.TID 0000.0001)  diagCG_resTarget = /* residual target for diag_cg2d */
(PID.TID 0000.0001)                 9.999999999999999E-12
(PID.TID 0000.0001)     ;
(PID.TID 0000.0001)  diagCG_pcOffDFac = /* preconditioner off-diagonal factor */
(PID.TID 0000.0001)                 9.611687812379854E-01
(PID.TID 0000.0001)     ;
(PID.TID 0000.0001) -----------------------------------------------------
(PID.TID 0000.0001)  DIAGNOSTICS_READPARMS: active diagnostics summary:
(PID.TID 0000.0001) -----------------------------------------------------
(PID.TID 0000.0001) Creating Output Stream: surfDiag
(PID.TID 0000.0001) Output Frequency:      86400.000000 ; Phase:           0.000000
(PID.TID 0000.0001)  Averaging Freq.:      86400.000000 , Phase:           0.000000 , Cycle:   1
(PID.TID 0000.0001)  missing value: -9.990000000000E+02
(PID.TID 0000.0001)  Levels:    will be set later
(PID.TID 0000.0001)  Fields:    SHIfwFlx SHI_mass SHIRshel ETAN     SHIuStar SHIForcT
(PID.TID 0000.0001) Creating Output Stream: dynDiag
(PID.TID 0000.0001) Output Frequency:    2592000.000000 ; Phase:           0.000000
(PID.TID 0000.0001)  Averaging Freq.:    2592000.000000 , Phase:           0.000000 , Cycle:   1
(PID.TID 0000.0001)  missing value: -9.990000000000E+02
(PID.TID 0000.0001)  Levels:    will be set later
(PID.TID 0000.0001)  Fields:    UVEL     VVEL     WVEL     THETA    SALT
(PID.TID 0000.0001) Creating Output Stream: SHICE_fwFluxtave
(PID.TID 0000.0001) Output Frequency:      86400.000000 ; Phase:           0.000000
(PID.TID 0000.0001)  Averaging Freq.:      86400.000000 , Phase:           0.000000 , Cycle:   1
(PID.TID 0000.0001)  missing value: -9.990000000000E+02
(PID.TID 0000.0001)  Levels:    will be set later
(PID.TID 0000.0001)  Fields:    SHIfwFlx
(PID.TID 0000.0001) Creating Output Stream: SHICE_mass
(PID.TID 0000.0001) Output Frequency:     -86400.000000 ; Phase:           0.000000
(PID.TID 0000.0001)  Averaging Freq.:          0.000000 , Phase:           0.000000 , Cycle:   1
(PID.TID 0000.0001)  missing value: -9.990000000000E+02
(PID.TID 0000.0001)  Levels:    will be set later
(PID.TID 0000.0001)  Fields:    SHI_mass
(PID.TID 0000.0001) -----------------------------------------------------
(PID.TID 0000.0001)  DIAGNOSTICS_READPARMS: statistics diags. summary:
(PID.TID 0000.0001) -----------------------------------------------------
(PID.TID 0000.0001) 
(PID.TID 0000.0001) SET_PARMS: done
(PID.TID 0000.0001) Enter INI_VERTICAL_GRID: setInterFDr=    T ; setCenterDr=    F
(PID.TID 0000.0001) %MON XC_max                       =   6.0500000000000E+04
(PID.TID 0000.0001) %MON XC_min                       =  -5.0000000000000E+02
(PID.TID 0000.0001) %MON XC_mean                      =   3.0000000000000E+04
(PID.TID 0000.0001) %MON XC_sd                        =   1.7895530168173E+04
(PID.TID 0000.0001) %MON XG_max                       =   6.0000000000000E+04
(PID.TID 0000.0001) %MON XG_min                       =  -1.0000000000000E+03
(PID.TID 0000.0001) %MON XG_mean                      =   2.9500000000000E+04
(PID.TID 0000.0001) %MON XG_sd                        =   1.7895530168173E+04
(PID.TID 0000.0001) %MON DXC_max                      =   1.0000000000000E+03
(PID.TID 0000.0001) %MON DXC_min                      =   1.0000000000000E+03
(PID.TID 0000.0001) %MON DXC_mean                     =   1.0000000000000E+03
(PID.TID 0000.0001) %MON DXC_sd                       =   0.0000000000000E+00
(PID.TID 0000.0001) %MON DXF_max                      =   1.0000000000000E+03
(PID.TID 0000.0001) %MON DXF_min                      =   1.0000000000000E+03
(PID.TID 0000.0001) %MON DXF_mean                     =   1.0000000000000E+03
(PID.TID 0000.0001) %MON DXF_sd                       =   0.0000000000000E+00
(PID.TID 0000.0001) %MON DXG_max                      =   1.0000000000000E+03
(PID.TID 0000.0001) %MON DXG_min                      =   1.0000000000000E+03
(PID.TID 0000.0001) %MON DXG_mean                     =   1.0000000000000E+03
(PID.TID 0000.0001) %MON DXG_sd                       =   0.0000000000000E+00
(PID.TID 0000.0001) %MON DXV_max                      =   1.0000000000000E+03
(PID.TID 0000.0001) %MON DXV_min                      =   1.0000000000000E+03
(PID.TID 0000.0001) %MON DXV_mean                     =   1.0000000000000E+03
(PID.TID 0000.0001) %MON DXV_sd                       =   0.0000000000000E+00
(PID.TID 0000.0001) %MON YC_max                       =   9.9500000000000E+04
(PID.TID 0000.0001) %MON YC_min                       =  -1.5000000000000E+03
(PID.TID 0000.0001) %MON YC_mean                      =   4.9000000000000E+04
(PID.TID 0000.0001) %MON YC_sd                        =   2.9443448620477E+04
(PID.TID 0000.0001) %MON YG_max                       =   9.9000000000000E+04
(PID.TID 0000.0001) %MON YG_min                       =  -2.0000000000000E+03
(PID.TID 0000.0001) %MON YG_mean                      =   4.8500000000000E+04
(PID.TID 0000.0001) %MON YG_sd                        =   2.9443448620477E+04
(PID.TID 0000.0001) %MON DYC_max                      =   1.0000000000000E+03
(PID.TID 0000.0001) %MON DYC_min                      =   1.0000000000000E+03
(PID.TID 0000.0001) %MON DYC_mean                     =   1.0000000000000E+03
(PID.TID 0000.0001) %MON DYC_sd                       =   0.0000000000000E+00
(PID.TID 0000.0001) %MON DYF_max                      =   1.0000000000000E+03
(PID.TID 0000.0001) %MON DYF_min                      =   1.0000000000000E+03
(PID.TID 0000.0001) %MON DYF_mean                     =   1.0000000000000E+03
(PID.TID 0000.0001) %MON DYF_sd                       =   0.0000000000000E+00
(PID.TID 0000.0001) %MON DYG_max                      =   1.0000000000000E+03
(PID.TID 0000.0001) %MON DYG_min                      =   1.0000000000000E+03
(PID.TID 0000.0001) %MON DYG_mean                     =   1.0000000000000E+03
(PID.TID 0000.0001) %MON DYG_sd                       =   0.0000000000000E+00
(PID.TID 0000.0001) %MON DYU_max                      =   1.0000000000000E+03
(PID.TID 0000.0001) %MON DYU_min                      =   1.0000000000000E+03
(PID.TID 0000.0001) %MON DYU_mean                     =   1.0000000000000E+03
(PID.TID 0000.0001) %MON DYU_sd                       =   0.0000000000000E+00
(PID.TID 0000.0001) %MON RA_max                       =   1.0000000000000E+06
(PID.TID 0000.0001) %MON RA_min                       =   1.0000000000000E+06
(PID.TID 0000.0001) %MON RA_mean                      =   1.0000000000000E+06
(PID.TID 0000.0001) %MON RA_sd                        =   0.0000000000000E+00
(PID.TID 0000.0001) %MON RAW_max                      =   1.0000000000000E+06
(PID.TID 0000.0001) %MON RAW_min                      =   1.0000000000000E+06
(PID.TID 0000.0001) %MON RAW_mean                     =   1.0000000000000E+06
(PID.TID 0000.0001) %MON RAW_sd                       =   0.0000000000000E+00
(PID.TID 0000.0001) %MON RAS_max                      =   1.0000000000000E+06
(PID.TID 0000.0001) %MON RAS_min                      =   1.0000000000000E+06
(PID.TID 0000.0001) %MON RAS_mean                     =   1.0000000000000E+06
(PID.TID 0000.0001) %MON RAS_sd                       =   0.0000000000000E+00
(PID.TID 0000.0001) %MON RAZ_max                      =   1.0000000000000E+06
(PID.TID 0000.0001) %MON RAZ_min                      =   1.0000000000000E+06
(PID.TID 0000.0001) %MON RAZ_mean                     =   1.0000000000000E+06
(PID.TID 0000.0001) %MON RAZ_sd                       =   0.0000000000000E+00
(PID.TID 0000.0001) %MON AngleCS_max                  =   1.0000000000000E+00
(PID.TID 0000.0001) %MON AngleCS_min                  =   1.0000000000000E+00
(PID.TID 0000.0001) %MON AngleCS_mean                 =   1.0000000000000E+00
(PID.TID 0000.0001) %MON AngleCS_sd                   =   0.0000000000000E+00
(PID.TID 0000.0001) %MON AngleSN_max                  =   0.0000000000000E+00
(PID.TID 0000.0001) %MON AngleSN_min                  =   0.0000000000000E+00
(PID.TID 0000.0001) %MON AngleSN_mean                 =   0.0000000000000E+00
(PID.TID 0000.0001) %MON AngleSN_sd                   =   0.0000000000000E+00
(PID.TID 0000.0001)  nRecords =   2 ; filePrec =  64 ; fileIter =       864
(PID.TID 0000.0001)     nDims =   2 , dims:
(PID.TID 0000.0001)    1:  62   1  62
(PID.TID 0000.0001)    2: 102   1 102
(PID.TID 0000.0001)     nFlds =   2 , nFl3D =   0 , fields:
(PID.TID 0000.0001)  >SHI_mass< >R_Shelfi<
(PID.TID 0000.0001) missingVal=  1.00000000000000E+00 ; nTimRec =   1 , timeList:
(PID.TID 0000.0001)   8.640000000000E+04
(PID.TID 0000.0001) READ_MFLDS_LEV_RS: read field: "R_Shelfi", #   2 in fldList, rec=   2
(PID.TID 0000.0001) READ_MFLDS_CHECK: - normal end ; reset MFLDS file-name: pickup_shelfice.0000000864
(PID.TID 0000.0001) GAD_INIT_FIXED: GAD_OlMinSize=  2  0  1
(PID.TID 0000.0001) 
(PID.TID 0000.0001) // ===================================
(PID.TID 0000.0001) // GAD parameters :
(PID.TID 0000.0001) // ===================================
(PID.TID 0000.0001) tempAdvScheme =   /* Temp. Horiz.Advection scheme selector */
(PID.TID 0000.0001)                      33
(PID.TID 0000.0001)     ;
(PID.TID 0000.0001) tempVertAdvScheme =   /* Temp. Vert. Advection scheme selector */
(PID.TID 0000.0001)                      33
(PID.TID 0000.0001)     ;
(PID.TID 0000.0001) tempMultiDimAdvec =   /* use Muti-Dim Advec method for Temp */
(PID.TID 0000.0001)                   T
(PID.TID 0000.0001)     ;
(PID.TID 0000.0001) tempSOM_Advection = /* use 2nd Order Moment Advection for Temp */
(PID.TID 0000.0001)                   F
(PID.TID 0000.0001)     ;
(PID.TID 0000.0001) AdamsBashforthGt = /* apply Adams-Bashforth extrapolation on Gt */
(PID.TID 0000.0001)                   F
(PID.TID 0000.0001)     ;
(PID.TID 0000.0001) AdamsBashforth_T = /* apply Adams-Bashforth extrapolation on Temp */
(PID.TID 0000.0001)                   F
(PID.TID 0000.0001)     ;
(PID.TID 0000.0001) saltAdvScheme =   /* Salt. Horiz.advection scheme selector */
(PID.TID 0000.0001)                      33
(PID.TID 0000.0001)     ;
(PID.TID 0000.0001) saltVertAdvScheme =   /* Salt. Vert. Advection scheme selector */
(PID.TID 0000.0001)                      33
(PID.TID 0000.0001)     ;
(PID.TID 0000.0001) saltMultiDimAdvec =   /* use Muti-Dim Advec method for Salt */
(PID.TID 0000.0001)                   T
(PID.TID 0000.0001)     ;
(PID.TID 0000.0001) saltSOM_Advection = /* use 2nd Order Moment Advection for Salt */
(PID.TID 0000.0001)                   F
(PID.TID 0000.0001)     ;
(PID.TID 0000.0001) AdamsBashforthGs = /* apply Adams-Bashforth extrapolation on Gs */
(PID.TID 0000.0001)                   F
(PID.TID 0000.0001)     ;
(PID.TID 0000.0001) AdamsBashforth_S = /* apply Adams-Bashforth extrapolation on Salt */
(PID.TID 0000.0001)                   F
(PID.TID 0000.0001)     ;
(PID.TID 0000.0001) // ===================================
(PID.TID 0000.0001) ------------------------------------------------------------
(PID.TID 0000.0001) DIAGNOSTICS_SET_LEVELS: done
(PID.TID 0000.0001)  Total Nb of available Diagnostics: ndiagt=   204
(PID.TID 0000.0001)  write list of available Diagnostics to file: available_diagnostics.log
(PID.TID 0000.0001) SETDIAG: Allocate  1 x  1 Levels for Diagnostic #   194 SHIfwFlx
(PID.TID 0000.0001) SETDIAG: Allocate  1 x  1 Levels for Diagnostic #   203 SHI_mass
(PID.TID 0000.0001) SETDIAG: Allocate  1 x  1 Levels for Diagnostic #   204 SHIRshel
(PID.TID 0000.0001) SETDIAG: Allocate  1 x  1 Levels for Diagnostic #    23 ETAN
(PID.TID 0000.0001) SETDIAG: Allocate  1 x  1 Levels for Diagnostic #   202 SHIuStar
(PID.TID 0000.0001) SETDIAG: Allocate  1 x  1 Levels for Diagnostic #   198 SHIForcT
(PID.TID 0000.0001) SETDIAG: Allocate 55 x  1 Levels for Diagnostic #    30 UVEL
(PID.TID 0000.0001) SETDIAG: Allocate 55 x  1 Levels for Diagnostic #    31 VVEL
(PID.TID 0000.0001) SETDIAG: Allocate 55 x  1 Levels for Diagnostic #    32 WVEL
(PID.TID 0000.0001) SETDIAG: Allocate 55 x  1 Levels for Diagnostic #    26 THETA
(PID.TID 0000.0001) SETDIAG: Allocate 55 x  1 Levels for Diagnostic #    27 SALT
(PID.TID 0000.0001) - NOTE - SETDIAG:  Diagnostic  #   194 SHIfwFlx is already set
(PID.TID 0000.0001) SETDIAG: Allocate  1 x  1 Levels for Diagnostic #   203 SHI_mass
(PID.TID 0000.0001)   space allocated for all diagnostics:     282 levels
(PID.TID 0000.0001)   set mate pointer for diag #    30  UVEL     , Parms: UUR     MR , mate:    31
(PID.TID 0000.0001)   set mate pointer for diag #    31  VVEL     , Parms: VVR     MR , mate:    30
(PID.TID 0000.0001) DIAGNOSTICS_SET_POINTERS: Set levels for Outp.Stream: surfDiag
(PID.TID 0000.0001)  Levels:       1.
(PID.TID 0000.0001) DIAGNOSTICS_SET_POINTERS: Set levels for Outp.Stream: dynDiag
(PID.TID 0000.0001)  Levels:       1.   2.   3.   4.   5.   6.   7.   8.   9.  10.  11.  12.  13.  14.  15.  16.  17.  18.  19.  20.
(PID.TID 0000.0001)  Levels:      21.  22.  23.  24.  25.  26.  27.  28.  29.  30.  31.  32.  33.  34.  35.  36.  37.  38.  39.  40.
(PID.TID 0000.0001)  Levels:      41.  42.  43.  44.  45.  46.  47.  48.  49.  50.  51.  52.  53.  54.  55.
(PID.TID 0000.0001) DIAGNOSTICS_SET_POINTERS: Set levels for Outp.Stream: SHICE_fwFluxtave
(PID.TID 0000.0001)  Levels:       1.
(PID.TID 0000.0001) DIAGNOSTICS_SET_POINTERS: Set levels for Outp.Stream: SHICE_mass
(PID.TID 0000.0001)  Levels:       1.
(PID.TID 0000.0001) DIAGNOSTICS_SET_POINTERS: done
(PID.TID 0000.0001) ------------------------------------------------------------
(PID.TID 0000.0001) DIAGSTATS_SET_REGIONS: define no region
(PID.TID 0000.0001) ------------------------------------------------------------
(PID.TID 0000.0001)   space allocated for all stats-diags:       0 levels
(PID.TID 0000.0001) DIAGSTATS_SET_POINTERS: done
(PID.TID 0000.0001) ------------------------------------------------------------
(PID.TID 0000.0001) %MON fCori_max                    =  -1.0000000000000E-04
(PID.TID 0000.0001) %MON fCori_min                    =  -1.0000000000000E-04
(PID.TID 0000.0001) %MON fCori_mean                   =  -1.0000000000000E-04
(PID.TID 0000.0001) %MON fCori_sd                     =   9.2157184661268E-19
(PID.TID 0000.0001) %MON fCoriG_max                   =  -1.0000000000000E-04
(PID.TID 0000.0001) %MON fCoriG_min                   =  -1.0000000000000E-04
(PID.TID 0000.0001) %MON fCoriG_mean                  =  -1.0000000000000E-04
(PID.TID 0000.0001) %MON fCoriG_sd                    =   9.2157184661268E-19
(PID.TID 0000.0001) %MON fCoriCos_max                 =   0.0000000000000E+00
(PID.TID 0000.0001) %MON fCoriCos_min                 =   0.0000000000000E+00
(PID.TID 0000.0001) %MON fCoriCos_mean                =   0.0000000000000E+00
(PID.TID 0000.0001) %MON fCoriCos_sd                  =   0.0000000000000E+00
(PID.TID 0000.0001) INI_CG2D: CG2D normalisation factor =  9.0909090909090909E-04
(PID.TID 0000.0001) 
(PID.TID 0000.0001) // =======================================================
(PID.TID 0000.0001) // Model configuration
(PID.TID 0000.0001) // =======================================================
(PID.TID 0000.0001) //
(PID.TID 0000.0001) // "Physical" paramters ( PARM01 in namelist )
(PID.TID 0000.0001) //
(PID.TID 0000.0001) buoyancyRelation = /* Type of relation to get Buoyancy */
(PID.TID 0000.0001)               'OCEANIC'
(PID.TID 0000.0001)     ;
(PID.TID 0000.0001) fluidIsAir   =  /* fluid major constituent is Air */
(PID.TID 0000.0001)                   F
(PID.TID 0000.0001)     ;
(PID.TID 0000.0001) fluidIsWater =  /* fluid major constituent is Water */
(PID.TID 0000.0001)                   T
(PID.TID 0000.0001)     ;
(PID.TID 0000.0001) usingPCoords =  /* use p (or p*) vertical coordinate */
(PID.TID 0000.0001)                   F
(PID.TID 0000.0001)     ;
(PID.TID 0000.0001) usingZCoords =  /* use z (or z*) vertical coordinate */
(PID.TID 0000.0001)                   T
(PID.TID 0000.0001)     ;
(PID.TID 0000.0001) tRef =   /* Reference temperature profile ( oC or K ) */
(PID.TID 0000.0001)    55 @ -1.900000000000000E+00              /* K =  1: 55 */
(PID.TID 0000.0001)     ;
(PID.TID 0000.0001) sRef =   /* Reference salinity profile ( psu ) */
(PID.TID 0000.0001)    55 @  3.440000000000000E+01              /* K =  1: 55 */
(PID.TID 0000.0001)     ;
(PID.TID 0000.0001) useStrainTensionVisc= /* Use StrainTension Form of Viscous Operator */
(PID.TID 0000.0001)                   F
(PID.TID 0000.0001)     ;
(PID.TID 0000.0001) useVariableVisc = /* Use variable horizontal viscosity */
(PID.TID 0000.0001)                   F
(PID.TID 0000.0001)     ;
(PID.TID 0000.0001) useHarmonicVisc = /* Use harmonic horizontal viscosity */
(PID.TID 0000.0001)                   T
(PID.TID 0000.0001)     ;
(PID.TID 0000.0001) useBiharmonicVisc= /* Use biharmonic horiz.  viscosity */
(PID.TID 0000.0001)                   F
(PID.TID 0000.0001)     ;
(PID.TID 0000.0001) useSmag3D = /* Use isotropic 3-D Smagorinsky viscosity */
(PID.TID 0000.0001)                   F
(PID.TID 0000.0001)     ;
(PID.TID 0000.0001) viscAh  =   /* Lateral harmonic viscosity ( m^2/s ) */
(PID.TID 0000.0001)                 1.000000000000000E+01
(PID.TID 0000.0001)     ;
(PID.TID 0000.0001) viscA4  =   /* Lateral biharmonic viscosity ( m^4/s ) */
(PID.TID 0000.0001)                 0.000000000000000E+00
(PID.TID 0000.0001)     ;
(PID.TID 0000.0001) no_slip_sides =  /* Viscous BCs: No-slip sides */
(PID.TID 0000.0001)                   F
(PID.TID 0000.0001)     ;
(PID.TID 0000.0001) sideDragFactor = /* side-drag scaling factor (non-dim) */
(PID.TID 0000.0001)                 2.000000000000000E+00
(PID.TID 0000.0001)     ;
(PID.TID 0000.0001) viscArNr = /* vertical profile of vertical viscosity ( m^2/s )*/
(PID.TID 0000.0001)    55 @  1.000000000000000E-03              /* K =  1: 55 */
(PID.TID 0000.0001)     ;
(PID.TID 0000.0001) no_slip_bottom =  /* Viscous BCs: No-slip bottom */
(PID.TID 0000.0001)                   F
(PID.TID 0000.0001)     ;
(PID.TID 0000.0001) bottomVisc_pCell = /* Partial-cell in bottom Visc. BC */
(PID.TID 0000.0001)                   F
(PID.TID 0000.0001)     ;
(PID.TID 0000.0001) bottomDragLinear = /* linear bottom-drag coefficient ( m/s ) */
(PID.TID 0000.0001)                 0.000000000000000E+00
(PID.TID 0000.0001)     ;
(PID.TID 0000.0001) bottomDragQuadratic = /* quadratic bottom-drag coefficient (-) */
(PID.TID 0000.0001)                 2.500000000000000E-03
(PID.TID 0000.0001)     ;
(PID.TID 0000.0001) selectBotDragQuadr = /* select quadratic bottom drag options */
(PID.TID 0000.0001)                       0
(PID.TID 0000.0001)     ;
(PID.TID 0000.0001) diffKhT =   /* Laplacian diffusion of heat laterally ( m^2/s ) */
(PID.TID 0000.0001)                 1.000000000000000E+01
(PID.TID 0000.0001)     ;
(PID.TID 0000.0001) diffK4T =   /* Biharmonic diffusion of heat laterally ( m^4/s ) */
(PID.TID 0000.0001)                 0.000000000000000E+00
(PID.TID 0000.0001)     ;
(PID.TID 0000.0001) diffKhS =   /* Laplacian diffusion of salt laterally ( m^2/s ) */
(PID.TID 0000.0001)                 1.000000000000000E+01
(PID.TID 0000.0001)     ;
(PID.TID 0000.0001) diffK4S =   /* Biharmonic diffusion of salt laterally ( m^4/s ) */
(PID.TID 0000.0001)                 0.000000000000000E+00
(PID.TID 0000.0001)     ;
(PID.TID 0000.0001) diffKrNrT = /* vertical profile of vertical diffusion of Temp ( m^2/s )*/
(PID.TID 0000.0001)    55 @  5.000000000000000E-05              /* K =  1: 55 */
(PID.TID 0000.0001)     ;
(PID.TID 0000.0001) diffKrNrS = /* vertical profile of vertical diffusion of Salt ( m^2/s )*/
(PID.TID 0000.0001)    55 @  5.000000000000000E-05              /* K =  1: 55 */
(PID.TID 0000.0001)     ;
(PID.TID 0000.0001) diffKrBL79surf = /* Surface diffusion for Bryan and Lewis 79 ( m^2/s ) */
(PID.TID 0000.0001)                 0.000000000000000E+00
(PID.TID 0000.0001)     ;
(PID.TID 0000.0001) diffKrBL79deep = /* Deep diffusion for Bryan and Lewis 1979 ( m^2/s ) */
(PID.TID 0000.0001)                 0.000000000000000E+00
(PID.TID 0000.0001)     ;
(PID.TID 0000.0001) diffKrBL79scl = /* Depth scale for Bryan and Lewis 1979 ( m ) */
(PID.TID 0000.0001)                 2.000000000000000E+02
(PID.TID 0000.0001)     ;
(PID.TID 0000.0001) diffKrBL79Ho = /* Turning depth for Bryan and Lewis 1979 ( m ) */
(PID.TID 0000.0001)                -2.000000000000000E+03
(PID.TID 0000.0001)     ;
(PID.TID 0000.0001) ivdc_kappa = /* Implicit Vertical Diffusivity for Convection ( m^2/s) */
(PID.TID 0000.0001)                 0.000000000000000E+00
(PID.TID 0000.0001)     ;
(PID.TID 0000.0001) hMixCriteria=  /* Criteria for mixed-layer diagnostic */
(PID.TID 0000.0001)                -8.000000000000000E-01
(PID.TID 0000.0001)     ;
(PID.TID 0000.0001) dRhoSmall =  /* Parameter for mixed-layer diagnostic */
(PID.TID 0000.0001)                 1.000000000000000E-06
(PID.TID 0000.0001)     ;
(PID.TID 0000.0001) hMixSmooth=  /* Smoothing parameter for mixed-layer diagnostic */
(PID.TID 0000.0001)                 0.000000000000000E+00
(PID.TID 0000.0001)     ;
(PID.TID 0000.0001) eosType =  /* Type of Equation of State */
(PID.TID 0000.0001)               'JMD95Z'
(PID.TID 0000.0001)     ;
(PID.TID 0000.0001) eosRefP0 = /* Reference atmospheric pressure for EOS ( Pa ) */
(PID.TID 0000.0001)                 1.013250000000000E+05
(PID.TID 0000.0001)     ;
(PID.TID 0000.0001) selectP_inEOS_Zc = /* select pressure to use in EOS (0,1,2,3) */
(PID.TID 0000.0001)                       0
(PID.TID 0000.0001)     0= -g*rhoConst*z ; 1= pRef (from tRef,sRef); 2= Hyd P ; 3= Hyd+NH P
(PID.TID 0000.0001)     ;
(PID.TID 0000.0001) surf_pRef = /* Surface reference pressure ( Pa ) */
(PID.TID 0000.0001)                 1.013250000000000E+05
(PID.TID 0000.0001)     ;
(PID.TID 0000.0001) HeatCapacity_Cp =  /* Specific heat capacity ( J/kg/K ) */
(PID.TID 0000.0001)                 3.974000000000000E+03
(PID.TID 0000.0001)     ;
(PID.TID 0000.0001) celsius2K = /* 0 degree Celsius converted to Kelvin ( K ) */
(PID.TID 0000.0001)                 2.731500000000000E+02
(PID.TID 0000.0001)     ;
(PID.TID 0000.0001) rhoConst  = /* Reference density (Boussinesq)  ( kg/m^3 ) */
(PID.TID 0000.0001)                 1.000000000000000E+03
(PID.TID 0000.0001)     ;
(PID.TID 0000.0001) rhoFacC = /* normalized Reference density @ cell-Center (-) */
(PID.TID 0000.0001)    55 @  1.000000000000000E+00              /* K =  1: 55 */
(PID.TID 0000.0001)     ;
(PID.TID 0000.0001) rhoFacF = /* normalized Reference density @ W-Interface (-) */
(PID.TID 0000.0001)    56 @  1.000000000000000E+00              /* K =  1: 56 */
(PID.TID 0000.0001)     ;
(PID.TID 0000.0001) rhoConstFresh = /* Fresh-water reference density ( kg/m^3 ) */
(PID.TID 0000.0001)                 1.000000000000000E+03
(PID.TID 0000.0001)     ;
(PID.TID 0000.0001) gravity =   /* Gravitational acceleration ( m/s^2 ) */
(PID.TID 0000.0001)                 9.810000000000000E+00
(PID.TID 0000.0001)     ;
(PID.TID 0000.0001) gBaro =   /* Barotropic gravity ( m/s^2 ) */
(PID.TID 0000.0001)                 9.810000000000000E+00
(PID.TID 0000.0001)     ;
(PID.TID 0000.0001) gravFacC = /* gravity factor (vs surf.) @ cell-Center (-) */
(PID.TID 0000.0001)    55 @  1.000000000000000E+00              /* K =  1: 55 */
(PID.TID 0000.0001)     ;
(PID.TID 0000.0001) gravFacF = /* gravity factor (vs surf.) @ W-Interface (-) */
(PID.TID 0000.0001)    56 @  1.000000000000000E+00              /* K =  1: 56 */
(PID.TID 0000.0001)     ;
(PID.TID 0000.0001) rotationPeriod =   /* Rotation Period ( s ) */
(PID.TID 0000.0001)                 8.616400000000000E+04
(PID.TID 0000.0001)     ;
(PID.TID 0000.0001) omega =   /* Angular velocity ( rad/s ) */
(PID.TID 0000.0001)                 7.292123516990375E-05
(PID.TID 0000.0001)     ;
(PID.TID 0000.0001) f0 =   /* Reference coriolis parameter ( 1/s ) */
(PID.TID 0000.0001)                -1.000000000000000E-04
(PID.TID 0000.0001)     ;
(PID.TID 0000.0001) beta =   /* Beta ( 1/(m.s) ) */
(PID.TID 0000.0001)                 9.999999999999999E-12
(PID.TID 0000.0001)     ;
(PID.TID 0000.0001) fPrime =   /* Second coriolis parameter ( 1/s ) */
(PID.TID 0000.0001)                 0.000000000000000E+00
(PID.TID 0000.0001)     ;
(PID.TID 0000.0001) rigidLid =   /* Rigid lid on/off flag */
(PID.TID 0000.0001)                   F
(PID.TID 0000.0001)     ;
(PID.TID 0000.0001) implicitFreeSurface =   /* Implicit free surface on/off flag */
(PID.TID 0000.0001)                   T
(PID.TID 0000.0001)     ;
(PID.TID 0000.0001) freeSurfFac =   /* Implicit free surface factor */
(PID.TID 0000.0001)                 1.000000000000000E+00
(PID.TID 0000.0001)     ;
(PID.TID 0000.0001) implicSurfPress =  /* Surface Pressure implicit factor (0-1)*/
(PID.TID 0000.0001)                 1.000000000000000E+00
(PID.TID 0000.0001)     ;
(PID.TID 0000.0001) implicDiv2DFlow =  /* Barot. Flow Div. implicit factor (0-1)*/
(PID.TID 0000.0001)                 1.000000000000000E+00
(PID.TID 0000.0001)     ;
(PID.TID 0000.0001) uniformLin_PhiSurf = /* use uniform Bo_surf on/off flag*/
(PID.TID 0000.0001)                   T
(PID.TID 0000.0001)     ;
(PID.TID 0000.0001) uniformFreeSurfLev = /* free-surface level-index is uniform */
(PID.TID 0000.0001)                   F
(PID.TID 0000.0001)     ;
(PID.TID 0000.0001) hFacMin =   /* minimum partial cell factor (hFac) */
(PID.TID 0000.0001)                 2.000000000000000E-01
(PID.TID 0000.0001)     ;
(PID.TID 0000.0001) hFacMinDr = /* minimum partial cell thickness ( m) */
(PID.TID 0000.0001)                 0.000000000000000E+00
(PID.TID 0000.0001)     ;
(PID.TID 0000.0001) exactConserv =  /* Exact Volume Conservation on/off flag*/
(PID.TID 0000.0001)                   T
(PID.TID 0000.0001)     ;
(PID.TID 0000.0001) linFSConserveTr = /* Tracer correction for Lin Free Surface on/off flag*/
(PID.TID 0000.0001)                   F
(PID.TID 0000.0001)     ;
(PID.TID 0000.0001) nonlinFreeSurf = /* Non-linear Free Surf. options (-1,0,1,2,3)*/
(PID.TID 0000.0001)                       4
(PID.TID 0000.0001)      -1,0= Off ; 1,2,3= On, 2=+rescale gU,gV, 3=+update cg2d solv.
(PID.TID 0000.0001)     ;
(PID.TID 0000.0001) hFacInf =   /* lower threshold for hFac (nonlinFreeSurf only)*/
(PID.TID 0000.0001)                 2.000000000000000E-01
(PID.TID 0000.0001)     ;
(PID.TID 0000.0001) hFacSup =   /* upper threshold for hFac (nonlinFreeSurf only)*/
(PID.TID 0000.0001)                 2.000000000000000E+00
(PID.TID 0000.0001)     ;
(PID.TID 0000.0001) select_rStar = /* r* Vertical coord. options (=0 r coord.; >0 uses r*)*/
(PID.TID 0000.0001)                       0
(PID.TID 0000.0001)     ;
(PID.TID 0000.0001) useRealFreshWaterFlux = /* Real Fresh Water Flux on/off flag*/
(PID.TID 0000.0001)                   T
(PID.TID 0000.0001)     ;
(PID.TID 0000.0001) temp_EvPrRn = /* Temp. of Evap/Prec/R (UNSET=use local T)(oC)*/
(PID.TID 0000.0001)                 1.234567000000000E+05
(PID.TID 0000.0001)     ;
(PID.TID 0000.0001) salt_EvPrRn = /* Salin. of Evap/Prec/R (UNSET=use local S)(psu)*/
(PID.TID 0000.0001)                 0.000000000000000E+00
(PID.TID 0000.0001)     ;
(PID.TID 0000.0001) selectAddFluid = /* option for mass source/sink of fluid (=0: off) */
(PID.TID 0000.0001)                       0
(PID.TID 0000.0001)     ;
(PID.TID 0000.0001) temp_addMass = /* Temp. of addMass array (UNSET=use local T)(oC)*/
(PID.TID 0000.0001)                 1.234567000000000E+05
(PID.TID 0000.0001)     ;
(PID.TID 0000.0001) salt_addMass = /* Salin. of addMass array (UNSET=use local S)(psu)*/
(PID.TID 0000.0001)                 0.000000000000000E+00
(PID.TID 0000.0001)     ;
(PID.TID 0000.0001) use3Dsolver = /* use 3-D pressure solver on/off flag */
(PID.TID 0000.0001)                   F
(PID.TID 0000.0001)     ;
(PID.TID 0000.0001) nonHydrostatic =  /* Non-Hydrostatic on/off flag */
(PID.TID 0000.0001)                   F
(PID.TID 0000.0001)     ;
(PID.TID 0000.0001) nh_Am2 = /* Non-Hydrostatic terms scaling factor */
(PID.TID 0000.0001)                 1.000000000000000E+00
(PID.TID 0000.0001)     ;
(PID.TID 0000.0001) implicitNHPress = /* Non-Hyd Pressure implicit factor (0-1)*/
(PID.TID 0000.0001)                 1.000000000000000E+00
(PID.TID 0000.0001)     ;
(PID.TID 0000.0001) selectNHfreeSurf = /* Non-Hyd (free-)Surface option */
(PID.TID 0000.0001)                       0
(PID.TID 0000.0001)     ;
(PID.TID 0000.0001) quasiHydrostatic = /* Quasi-Hydrostatic on/off flag */
(PID.TID 0000.0001)                   F
(PID.TID 0000.0001)     ;
(PID.TID 0000.0001) calc_wVelocity = /* vertical velocity calculation on/off flag */
(PID.TID 0000.0001)                   T
(PID.TID 0000.0001)     ;
(PID.TID 0000.0001) momStepping =  /* Momentum equation on/off flag */
(PID.TID 0000.0001)                   T
(PID.TID 0000.0001)     ;
(PID.TID 0000.0001) vectorInvariantMomentum= /* Vector-Invariant Momentum on/off */
(PID.TID 0000.0001)                   F
(PID.TID 0000.0001)     ;
(PID.TID 0000.0001) momAdvection =  /* Momentum advection on/off flag */
(PID.TID 0000.0001)                   T
(PID.TID 0000.0001)     ;
(PID.TID 0000.0001) momViscosity =  /* Momentum viscosity on/off flag */
(PID.TID 0000.0001)                   T
(PID.TID 0000.0001)     ;
(PID.TID 0000.0001) momImplVertAdv= /* Momentum implicit vert. advection on/off*/
(PID.TID 0000.0001)                   F
(PID.TID 0000.0001)     ;
(PID.TID 0000.0001) implicitViscosity = /* Implicit viscosity on/off flag */
(PID.TID 0000.0001)                   F
(PID.TID 0000.0001)     ;
(PID.TID 0000.0001) selectImplicitDrag= /* Implicit bot Drag options (0,1,2)*/
(PID.TID 0000.0001)                       0
(PID.TID 0000.0001)     0= Expl. ; 1= Impl. on provis. Vel ; 2= Fully Impl (with surf.P)
(PID.TID 0000.0001)     ;
(PID.TID 0000.0001) metricTerms =  /* metric-Terms on/off flag */
(PID.TID 0000.0001)                   F
(PID.TID 0000.0001)     ;
(PID.TID 0000.0001) useNHMTerms = /* Non-Hydrostatic Metric-Terms on/off */
(PID.TID 0000.0001)                   F
(PID.TID 0000.0001)     ;
(PID.TID 0000.0001) selectCoriMap = /* Coriolis Map options (0,1,2,3)*/
(PID.TID 0000.0001)                       0
(PID.TID 0000.0001)     0= f-Plane ; 1= Beta-Plane ; 2= Spherical ; 3= read from file
(PID.TID 0000.0001)     ;
(PID.TID 0000.0001) use3dCoriolis = /* 3-D Coriolis on/off flag */
(PID.TID 0000.0001)                   F
(PID.TID 0000.0001)     ;
(PID.TID 0000.0001) useCoriolis =  /* Coriolis on/off flag */
(PID.TID 0000.0001)                   T
(PID.TID 0000.0001)     ;
(PID.TID 0000.0001) useCDscheme =  /* CD scheme on/off flag */
(PID.TID 0000.0001)                   F
(PID.TID 0000.0001)     ;
(PID.TID 0000.0001) selectCoriScheme= /* Scheme selector for Coriolis-Term */
(PID.TID 0000.0001)                       0
(PID.TID 0000.0001)    = 0 : original discretization (simple averaging, no hFac)
(PID.TID 0000.0001)    = 1 : Wet-point averaging (Jamar & Ozer 1986)
(PID.TID 0000.0001)    = 2 : energy conserving scheme (no hFac weight)
(PID.TID 0000.0001)    = 3 : energy conserving scheme using Wet-point averaging
(PID.TID 0000.0001)     ;
(PID.TID 0000.0001) momForcing =  /* Momentum forcing on/off flag */
(PID.TID 0000.0001)                   T
(PID.TID 0000.0001)     ;
(PID.TID 0000.0001) momTidalForcing = /* Momentum Tidal forcing on/off flag */
(PID.TID 0000.0001)                   T
(PID.TID 0000.0001)     ;
(PID.TID 0000.0001) momPressureForcing =  /* Momentum pressure term on/off flag */
(PID.TID 0000.0001)                   T
(PID.TID 0000.0001)     ;
(PID.TID 0000.0001) implicitIntGravWave= /* Implicit Internal Gravity Wave flag */
(PID.TID 0000.0001)                   F
(PID.TID 0000.0001)     ;
(PID.TID 0000.0001) staggerTimeStep =    /* Stagger time stepping on/off flag */
(PID.TID 0000.0001)                   T
(PID.TID 0000.0001)     ;
(PID.TID 0000.0001) doResetHFactors = /* reset thickness factors @ each time-step */
(PID.TID 0000.0001)                   F
(PID.TID 0000.0001)     ;
(PID.TID 0000.0001) multiDimAdvection =  /* enable/disable Multi-Dim Advection */
(PID.TID 0000.0001)                   T
(PID.TID 0000.0001)     ;
(PID.TID 0000.0001) useMultiDimAdvec =   /* Multi-Dim Advection is/is-not used */
(PID.TID 0000.0001)                   T
(PID.TID 0000.0001)     ;
(PID.TID 0000.0001) implicitDiffusion = /* Implicit Diffusion on/off flag */
(PID.TID 0000.0001)                   F
(PID.TID 0000.0001)     ;
(PID.TID 0000.0001) tempStepping =  /* Temperature equation on/off flag */
(PID.TID 0000.0001)                   T
(PID.TID 0000.0001)     ;
(PID.TID 0000.0001) tempAdvection = /* Temperature advection on/off flag */
(PID.TID 0000.0001)                   T
(PID.TID 0000.0001)     ;
(PID.TID 0000.0001) tempImplVertAdv = /* Temp. implicit vert. advection on/off */
(PID.TID 0000.0001)                   F
(PID.TID 0000.0001)     ;
(PID.TID 0000.0001) tempForcing  =  /* Temperature forcing on/off flag */
(PID.TID 0000.0001)                   T
(PID.TID 0000.0001)     ;
(PID.TID 0000.0001) doThetaClimRelax = /* apply SST relaxation on/off flag */
(PID.TID 0000.0001)                   F
(PID.TID 0000.0001)     ;
(PID.TID 0000.0001) tempIsActiveTr = /* Temp. is a dynamically Active Tracer */
(PID.TID 0000.0001)                   T
(PID.TID 0000.0001)     ;
(PID.TID 0000.0001) saltStepping =  /* Salinity equation on/off flag */
(PID.TID 0000.0001)                   T
(PID.TID 0000.0001)     ;
(PID.TID 0000.0001) saltAdvection = /* Salinity advection on/off flag */
(PID.TID 0000.0001)                   T
(PID.TID 0000.0001)     ;
(PID.TID 0000.0001) saltImplVertAdv = /* Sali. implicit vert. advection on/off */
(PID.TID 0000.0001)                   F
(PID.TID 0000.0001)     ;
(PID.TID 0000.0001) saltForcing  =  /* Salinity forcing on/off flag */
(PID.TID 0000.0001)                   T
(PID.TID 0000.0001)     ;
(PID.TID 0000.0001) doSaltClimRelax = /* apply SSS relaxation on/off flag */
(PID.TID 0000.0001)                   F
(PID.TID 0000.0001)     ;
(PID.TID 0000.0001) saltIsActiveTr = /* Salt  is a dynamically Active Tracer */
(PID.TID 0000.0001)                   T
(PID.TID 0000.0001)     ;
(PID.TID 0000.0001)  readBinaryPrec = /* Precision used for reading binary files */
(PID.TID 0000.0001)                      64
(PID.TID 0000.0001)     ;
(PID.TID 0000.0001) writeBinaryPrec = /* Precision used for writing binary files */
(PID.TID 0000.0001)                      32
(PID.TID 0000.0001)     ;
(PID.TID 0000.0001)  rwSuffixType =   /* select format of mds file suffix */
(PID.TID 0000.0001)                       0
(PID.TID 0000.0001)    = 0 : myIter (I10.10) ;   = 1 : 100*myTime (100th sec) ;
(PID.TID 0000.0001)    = 2 : myTime (seconds);   = 3 : myTime/360 (10th of hr);
(PID.TID 0000.0001)    = 4 : myTime/3600 (hours)
(PID.TID 0000.0001)     ;
(PID.TID 0000.0001)  globalFiles = /* write "global" (=not per tile) files */
(PID.TID 0000.0001)                   T
(PID.TID 0000.0001)     ;
(PID.TID 0000.0001)  useSingleCpuIO = /* only master MPI process does I/O */
(PID.TID 0000.0001)                   T
(PID.TID 0000.0001)     ;
(PID.TID 0000.0001)  useSingleCpuInput = /* only master process reads input */
(PID.TID 0000.0001)                   T
(PID.TID 0000.0001)     ;
(PID.TID 0000.0001) /* debLev[*]  : level of debug & auxiliary message printing */
(PID.TID 0000.0001) debLevZero =  0 ; /* level of disabled aux. msg printing */
(PID.TID 0000.0001)    debLevA =  1 ; /* level of minimum  aux. msg printing */
(PID.TID 0000.0001)    debLevB =  2 ; /* level of low aux. print (report read-file opening)*/
(PID.TID 0000.0001)    debLevC =  3 ; /* level of moderate debug prt (most pkgs debug msg) */
(PID.TID 0000.0001)    debLevD =  4 ; /* level of enhanced debug prt (add DEBUG_STATS prt) */
(PID.TID 0000.0001)    debLevE =  5 ; /* level of extensive debug printing */
(PID.TID 0000.0001) debugLevel =  /* select debug printing level */
(PID.TID 0000.0001)                       1
(PID.TID 0000.0001)     ;
(PID.TID 0000.0001)  plotLevel =  /* select PLOT_FIELD printing level */
(PID.TID 0000.0001)                       1
(PID.TID 0000.0001)     ;
(PID.TID 0000.0001) //
(PID.TID 0000.0001) // Elliptic solver(s) paramters ( PARM02 in namelist )
(PID.TID 0000.0001) //
(PID.TID 0000.0001) cg2dMaxIters =   /* Upper limit on 2d con. grad iterations  */
(PID.TID 0000.0001)                    1000
(PID.TID 0000.0001)     ;
(PID.TID 0000.0001) cg2dChkResFreq =   /* 2d con. grad convergence test frequency */
(PID.TID 0000.0001)                       1
(PID.TID 0000.0001)     ;
(PID.TID 0000.0001) cg2dUseMinResSol= /* use cg2d last-iter(=0) / min-resid.(=1) solution */
(PID.TID 0000.0001)                       0
(PID.TID 0000.0001)     ;
(PID.TID 0000.0001) cg2dTargetResidual =   /* 2d con. grad target residual  */
(PID.TID 0000.0001)                 9.999999999999999E-12
(PID.TID 0000.0001)     ;
(PID.TID 0000.0001) cg2dTargetResWunit =   /* CG2d target residual [W units] */
(PID.TID 0000.0001)                -1.000000000000000E+00
(PID.TID 0000.0001)     ;
(PID.TID 0000.0001) cg2dPreCondFreq =   /* Freq. for updating cg2d preconditioner */
(PID.TID 0000.0001)                       1
(PID.TID 0000.0001)     ;
(PID.TID 0000.0001) useSRCGSolver =  /* use single reduction CG solver(s) */
(PID.TID 0000.0001)                   F
(PID.TID 0000.0001)     ;
(PID.TID 0000.0001) printResidualFreq = /* Freq. for printing CG residual */
(PID.TID 0000.0001)                       0
(PID.TID 0000.0001)     ;
(PID.TID 0000.0001) //
(PID.TID 0000.0001) // Time stepping paramters ( PARM03 in namelist )
(PID.TID 0000.0001) //
(PID.TID 0000.0001) deltaTMom =   /* Momentum equation timestep ( s ) */
(PID.TID 0000.0001)                 1.000000000000000E+02
(PID.TID 0000.0001)     ;
(PID.TID 0000.0001) deltaTFreeSurf = /* FreeSurface equation timestep ( s ) */
(PID.TID 0000.0001)                 1.000000000000000E+02
(PID.TID 0000.0001)     ;
(PID.TID 0000.0001) dTtracerLev =  /* Tracer equation timestep ( s ) */
(PID.TID 0000.0001)    55 @  1.000000000000000E+02              /* K =  1: 55 */
(PID.TID 0000.0001)     ;
(PID.TID 0000.0001) deltaTClock  =   /* Model clock timestep ( s ) */
(PID.TID 0000.0001)                 1.000000000000000E+02
(PID.TID 0000.0001)     ;
(PID.TID 0000.0001) cAdjFreq =   /* Convective adjustment interval ( s ) */
(PID.TID 0000.0001)                 1.000000000000000E+02
(PID.TID 0000.0001)     ;
(PID.TID 0000.0001) momForcingOutAB = /* =1: take Momentum Forcing out of Adams-Bash. stepping */
(PID.TID 0000.0001)                       0
(PID.TID 0000.0001)     ;
(PID.TID 0000.0001) tracForcingOutAB = /* =1: take T,S,pTr Forcing out of Adams-Bash. stepping */
(PID.TID 0000.0001)                       0
(PID.TID 0000.0001)     ;
(PID.TID 0000.0001) momDissip_In_AB = /* put Dissipation Tendency in Adams-Bash. stepping */
(PID.TID 0000.0001)                   T
(PID.TID 0000.0001)     ;
(PID.TID 0000.0001) doAB_onGtGs = /* apply AB on Tendencies (rather than on T,S)*/
(PID.TID 0000.0001)                   T
(PID.TID 0000.0001)     ;
(PID.TID 0000.0001) abEps =   /* Adams-Bashforth-2 stabilizing weight */
(PID.TID 0000.0001)                 1.000000000000000E-02
(PID.TID 0000.0001)     ;
(PID.TID 0000.0001) applyExchUV_early = /* Apply EXCH to U,V earlier in time-step */
(PID.TID 0000.0001)                   F
(PID.TID 0000.0001)     ;
(PID.TID 0000.0001) pickupStrictlyMatch= /* stop if pickup do not strictly match */
(PID.TID 0000.0001)                   T
(PID.TID 0000.0001)     ;
(PID.TID 0000.0001) nIter0   =   /* Run starting timestep number */
(PID.TID 0000.0001)                     864
(PID.TID 0000.0001)     ;
(PID.TID 0000.0001) nTimeSteps = /* Number of timesteps */
(PID.TID 0000.0001)                     865
(PID.TID 0000.0001)     ;
(PID.TID 0000.0001) nEndIter =   /* Run ending timestep number */
(PID.TID 0000.0001)                    1729
(PID.TID 0000.0001)     ;
(PID.TID 0000.0001) baseTime =   /* Model base time ( s ) */
(PID.TID 0000.0001)                 0.000000000000000E+00
(PID.TID 0000.0001)     ;
(PID.TID 0000.0001) startTime =  /* Run start time ( s ) */
(PID.TID 0000.0001)                 8.640000000000000E+04
(PID.TID 0000.0001)     ;
(PID.TID 0000.0001) endTime  =   /* Integration ending time ( s ) */
(PID.TID 0000.0001)                 1.729000000000000E+05
(PID.TID 0000.0001)     ;
(PID.TID 0000.0001) pChkPtFreq = /* Permanent restart/pickup file interval ( s ) */
(PID.TID 0000.0001)                 8.640000000000000E+04
(PID.TID 0000.0001)     ;
(PID.TID 0000.0001) chkPtFreq  = /* Rolling restart/pickup file interval ( s ) */
(PID.TID 0000.0001)                 8.640000000000000E+05
(PID.TID 0000.0001)     ;
(PID.TID 0000.0001) pickup_write_mdsio =   /* Model IO flag. */
(PID.TID 0000.0001)                   T
(PID.TID 0000.0001)     ;
(PID.TID 0000.0001) pickup_read_mdsio =   /* Model IO flag. */
(PID.TID 0000.0001)                   T
(PID.TID 0000.0001)     ;
(PID.TID 0000.0001) writePickupAtEnd =   /* Model IO flag. */
(PID.TID 0000.0001)                   T
(PID.TID 0000.0001)     ;
(PID.TID 0000.0001) dumpFreq =   /* Model state write out interval ( s ). */
(PID.TID 0000.0001)                 8.640000000000000E+05
(PID.TID 0000.0001)     ;
(PID.TID 0000.0001) dumpInitAndLast= /* write out Initial & Last iter. model state */
(PID.TID 0000.0001)                   T
(PID.TID 0000.0001)     ;
(PID.TID 0000.0001) snapshot_mdsio =   /* Model IO flag. */
(PID.TID 0000.0001)                   T
(PID.TID 0000.0001)     ;
(PID.TID 0000.0001) monitorFreq =   /* Monitor output interval ( s ). */
(PID.TID 0000.0001)                 1.000000000000000E+02
(PID.TID 0000.0001)     ;
(PID.TID 0000.0001) monitorSelect = /* select group of variables to monitor */
(PID.TID 0000.0001)                       1
(PID.TID 0000.0001)     ;
(PID.TID 0000.0001) monitor_stdio =   /* Model IO flag. */
(PID.TID 0000.0001)                   T
(PID.TID 0000.0001)     ;
(PID.TID 0000.0001) externForcingPeriod =   /* forcing period (s) */
(PID.TID 0000.0001)                 0.000000000000000E+00
(PID.TID 0000.0001)     ;
(PID.TID 0000.0001) externForcingCycle =   /* period of the cyle (s). */
(PID.TID 0000.0001)                 0.000000000000000E+00
(PID.TID 0000.0001)     ;
(PID.TID 0000.0001) tauThetaClimRelax =   /* relaxation time scale (s) */
(PID.TID 0000.0001)                 0.000000000000000E+00
(PID.TID 0000.0001)     ;
(PID.TID 0000.0001) tauSaltClimRelax =   /* relaxation time scale (s) */
(PID.TID 0000.0001)                 0.000000000000000E+00
(PID.TID 0000.0001)     ;
(PID.TID 0000.0001) latBandClimRelax =   /* max. Lat. where relaxation */
(PID.TID 0000.0001)                 3.060000000000000E+05
(PID.TID 0000.0001)     ;
(PID.TID 0000.0001) //
(PID.TID 0000.0001) // Gridding paramters ( PARM04 in namelist )
(PID.TID 0000.0001) //
(PID.TID 0000.0001) usingCartesianGrid = /* Cartesian coordinates flag ( True/False ) */
(PID.TID 0000.0001)                   T
(PID.TID 0000.0001)     ;
(PID.TID 0000.0001) usingCylindricalGrid = /* Cylindrical coordinates flag ( True/False ) */
(PID.TID 0000.0001)                   F
(PID.TID 0000.0001)     ;
(PID.TID 0000.0001) usingSphericalPolarGrid = /* Spherical coordinates flag ( True/False ) */
(PID.TID 0000.0001)                   F
(PID.TID 0000.0001)     ;
(PID.TID 0000.0001) usingCurvilinearGrid = /* Curvilinear coordinates flag ( True/False ) */
(PID.TID 0000.0001)                   F
(PID.TID 0000.0001)     ;
(PID.TID 0000.0001) useMin4hFacEdges = /* set hFacW,S as minimum of adjacent hFacC factor */
(PID.TID 0000.0001)                   F
(PID.TID 0000.0001)     ;
(PID.TID 0000.0001) interViscAr_pCell = /* account for partial-cell in interior vert. viscosity */
(PID.TID 0000.0001)                   F
(PID.TID 0000.0001)     ;
(PID.TID 0000.0001) interDiffKr_pCell = /* account for partial-cell in interior vert. diffusion */
(PID.TID 0000.0001)                   F
(PID.TID 0000.0001)     ;
(PID.TID 0000.0001) pCellMix_select = /* option to enhance mixing near surface & bottom */
(PID.TID 0000.0001)                       0
(PID.TID 0000.0001)     ;
(PID.TID 0000.0001) selectSigmaCoord = /* Hybrid-Sigma Vert. Coordinate option */
(PID.TID 0000.0001)                       0
(PID.TID 0000.0001)     ;
(PID.TID 0000.0001) rSigmaBnd = /* r/sigma transition ( units of r ==  m ) */
(PID.TID 0000.0001)                 1.234567000000000E+05
(PID.TID 0000.0001)     ;
(PID.TID 0000.0001) rkSign =   /* index orientation relative to vertical coordinate */
(PID.TID 0000.0001)                -1.000000000000000E+00
(PID.TID 0000.0001)     ;
(PID.TID 0000.0001) gravitySign = /* gravity orientation relative to vertical coordinate */
(PID.TID 0000.0001)                -1.000000000000000E+00
(PID.TID 0000.0001)     ;
(PID.TID 0000.0001) seaLev_Z =  /* reference height of sea-level [m] */
(PID.TID 0000.0001)                 0.000000000000000E+00
(PID.TID 0000.0001)     ;
(PID.TID 0000.0001) top_Pres =  /* reference pressure at the top [Pa] */
(PID.TID 0000.0001)                 0.000000000000000E+00
(PID.TID 0000.0001)     ;
(PID.TID 0000.0001) mass2rUnit = /* convert mass per unit area [kg/m2] to r-units [m] */
(PID.TID 0000.0001)                 1.000000000000000E-03
(PID.TID 0000.0001)     ;
(PID.TID 0000.0001) rUnit2mass = /* convert r-units [m] to mass per unit area [kg/m2] */
(PID.TID 0000.0001)                 1.000000000000000E+03
(PID.TID 0000.0001)     ;
(PID.TID 0000.0001) drC =   /* C spacing ( units of r ) */
(PID.TID 0000.0001)                 1.000000000000000E+01,      /* K =  1 */
(PID.TID 0000.0001)    54 @  2.000000000000000E+01,             /* K =  2: 55 */
(PID.TID 0000.0001)                 1.000000000000000E+01       /* K = 56 */
(PID.TID 0000.0001)     ;
(PID.TID 0000.0001) drF =   /* W spacing ( units of r ) */
(PID.TID 0000.0001)    55 @  2.000000000000000E+01              /* K =  1: 55 */
(PID.TID 0000.0001)     ;
(PID.TID 0000.0001) delX = /* U spacing ( m - cartesian, degrees - spherical ) */
(PID.TID 0000.0001)    62 @  1.000000000000000E+03              /* I =  1: 62 */
(PID.TID 0000.0001)     ;
(PID.TID 0000.0001) delY = /* V spacing ( m - cartesian, degrees - spherical ) */
(PID.TID 0000.0001)   102 @  1.000000000000000E+03              /* J =  1:102 */
(PID.TID 0000.0001)     ;
(PID.TID 0000.0001) xgOrigin = /* X-axis origin of West  edge (cartesian: m, lat-lon: deg) */
(PID.TID 0000.0001)                -1.000000000000000E+03
(PID.TID 0000.0001)     ;
(PID.TID 0000.0001) ygOrigin = /* Y-axis origin of South edge (cartesian: m, lat-lon: deg) */
(PID.TID 0000.0001)                -2.000000000000000E+03
(PID.TID 0000.0001)     ;
(PID.TID 0000.0001) rSphere =  /* Radius ( ignored - cartesian, m - spherical ) */
(PID.TID 0000.0001)                 6.370000000000000E+06
(PID.TID 0000.0001)     ;
(PID.TID 0000.0001) deepAtmosphere = /* Deep/Shallow Atmosphere flag (True/False) */
(PID.TID 0000.0001)                   F
(PID.TID 0000.0001)     ;
(PID.TID 0000.0001) xC =  /* xC(:,1,:,1) : P-point X coord ( deg. or m if cartesian) */
(PID.TID 0000.0001)                -5.000000000000000E+02,      /* I =  1 */
(PID.TID 0000.0001)                 5.000000000000000E+02,      /* I =  2 */
(PID.TID 0000.0001)                 1.500000000000000E+03,      /* I =  3 */
(PID.TID 0000.0001)                 2.500000000000000E+03,      /* I =  4 */
(PID.TID 0000.0001)                 3.500000000000000E+03,      /* I =  5 */
(PID.TID 0000.0001)                 4.500000000000000E+03,      /* I =  6 */
(PID.TID 0000.0001)                 5.500000000000000E+03,      /* I =  7 */
(PID.TID 0000.0001)                 6.500000000000000E+03,      /* I =  8 */
(PID.TID 0000.0001)                 7.500000000000000E+03,      /* I =  9 */
(PID.TID 0000.0001)                 8.500000000000000E+03,      /* I = 10 */
(PID.TID 0000.0001)                 9.500000000000000E+03,      /* I = 11 */
(PID.TID 0000.0001)                 1.050000000000000E+04,      /* I = 12 */
(PID.TID 0000.0001)                 1.150000000000000E+04,      /* I = 13 */
(PID.TID 0000.0001)                 1.250000000000000E+04,      /* I = 14 */
(PID.TID 0000.0001)                 1.350000000000000E+04,      /* I = 15 */
(PID.TID 0000.0001)                 1.450000000000000E+04,      /* I = 16 */
(PID.TID 0000.0001)                 1.550000000000000E+04,      /* I = 17 */
(PID.TID 0000.0001)                 1.650000000000000E+04,      /* I = 18 */
(PID.TID 0000.0001)                 1.750000000000000E+04,      /* I = 19 */
(PID.TID 0000.0001)                 1.850000000000000E+04,      /* I = 20 */
(PID.TID 0000.0001)                 1.950000000000000E+04,      /* I = 21 */
(PID.TID 0000.0001)                 2.050000000000000E+04,      /* I = 22 */
(PID.TID 0000.0001)                 2.150000000000000E+04,      /* I = 23 */
(PID.TID 0000.0001)                 2.250000000000000E+04,      /* I = 24 */
(PID.TID 0000.0001)                 2.350000000000000E+04,      /* I = 25 */
(PID.TID 0000.0001)                 2.450000000000000E+04,      /* I = 26 */
(PID.TID 0000.0001)                 2.550000000000000E+04,      /* I = 27 */
(PID.TID 0000.0001)                 2.650000000000000E+04,      /* I = 28 */
(PID.TID 0000.0001)                 2.750000000000000E+04,      /* I = 29 */
(PID.TID 0000.0001)                 2.850000000000000E+04,      /* I = 30 */
(PID.TID 0000.0001)                 2.950000000000000E+04       /* I = 31 */
(PID.TID 0000.0001)     ;
(PID.TID 0000.0001) yC =  /* yC(1,:,1,:) : P-point Y coord ( deg. or m if cartesian) */
(PID.TID 0000.0001)                -1.500000000000000E+03,      /* J =  1 */
(PID.TID 0000.0001)                -5.000000000000000E+02,      /* J =  2 */
(PID.TID 0000.0001)                 5.000000000000000E+02,      /* J =  3 */
(PID.TID 0000.0001)                 1.500000000000000E+03,      /* J =  4 */
(PID.TID 0000.0001)                 2.500000000000000E+03,      /* J =  5 */
(PID.TID 0000.0001)                 3.500000000000000E+03,      /* J =  6 */
(PID.TID 0000.0001)                 4.500000000000000E+03,      /* J =  7 */
(PID.TID 0000.0001)                 5.500000000000000E+03,      /* J =  8 */
(PID.TID 0000.0001)                 6.500000000000000E+03,      /* J =  9 */
(PID.TID 0000.0001)                 7.500000000000000E+03,      /* J = 10 */
(PID.TID 0000.0001)                 8.500000000000000E+03,      /* J = 11 */
(PID.TID 0000.0001)                 9.500000000000000E+03,      /* J = 12 */
(PID.TID 0000.0001)                 1.050000000000000E+04,      /* J = 13 */
(PID.TID 0000.0001)                 1.150000000000000E+04,      /* J = 14 */
(PID.TID 0000.0001)                 1.250000000000000E+04,      /* J = 15 */
(PID.TID 0000.0001)                 1.350000000000000E+04,      /* J = 16 */
(PID.TID 0000.0001)                 1.450000000000000E+04       /* J = 17 */
(PID.TID 0000.0001)     ;
(PID.TID 0000.0001) rcoord = /* P-point R coordinate (  units of r ) */
(PID.TID 0000.0001)                -1.000000000000000E+01,      /* K =  1 */
(PID.TID 0000.0001)                -3.000000000000000E+01,      /* K =  2 */
(PID.TID 0000.0001)                -5.000000000000000E+01,      /* K =  3 */
(PID.TID 0000.0001)                -7.000000000000000E+01,      /* K =  4 */
(PID.TID 0000.0001)                -9.000000000000000E+01,      /* K =  5 */
(PID.TID 0000.0001)                -1.100000000000000E+02,      /* K =  6 */
(PID.TID 0000.0001)                -1.300000000000000E+02,      /* K =  7 */
(PID.TID 0000.0001)                -1.500000000000000E+02,      /* K =  8 */
(PID.TID 0000.0001)                -1.700000000000000E+02,      /* K =  9 */
(PID.TID 0000.0001)                -1.900000000000000E+02,      /* K = 10 */
(PID.TID 0000.0001)                -2.100000000000000E+02,      /* K = 11 */
(PID.TID 0000.0001)                -2.300000000000000E+02,      /* K = 12 */
(PID.TID 0000.0001)                -2.500000000000000E+02,      /* K = 13 */
(PID.TID 0000.0001)                -2.700000000000000E+02,      /* K = 14 */
(PID.TID 0000.0001)                -2.900000000000000E+02,      /* K = 15 */
(PID.TID 0000.0001)                -3.100000000000000E+02,      /* K = 16 */
(PID.TID 0000.0001)                -3.300000000000000E+02,      /* K = 17 */
(PID.TID 0000.0001)                -3.500000000000000E+02,      /* K = 18 */
(PID.TID 0000.0001)                -3.700000000000000E+02,      /* K = 19 */
(PID.TID 0000.0001)                -3.900000000000000E+02,      /* K = 20 */
(PID.TID 0000.0001)                -4.100000000000000E+02,      /* K = 21 */
(PID.TID 0000.0001)                -4.300000000000000E+02,      /* K = 22 */
(PID.TID 0000.0001)                -4.500000000000000E+02,      /* K = 23 */
(PID.TID 0000.0001)                -4.700000000000000E+02,      /* K = 24 */
(PID.TID 0000.0001)                -4.900000000000000E+02,      /* K = 25 */
(PID.TID 0000.0001)                -5.100000000000000E+02,      /* K = 26 */
(PID.TID 0000.0001)                -5.300000000000000E+02,      /* K = 27 */
(PID.TID 0000.0001)                -5.500000000000000E+02,      /* K = 28 */
(PID.TID 0000.0001)                -5.700000000000000E+02,      /* K = 29 */
(PID.TID 0000.0001)                -5.900000000000000E+02,      /* K = 30 */
(PID.TID 0000.0001)                -6.100000000000000E+02,      /* K = 31 */
(PID.TID 0000.0001)                -6.300000000000000E+02,      /* K = 32 */
(PID.TID 0000.0001)                -6.500000000000000E+02,      /* K = 33 */
(PID.TID 0000.0001)                -6.700000000000000E+02,      /* K = 34 */
(PID.TID 0000.0001)                -6.900000000000000E+02,      /* K = 35 */
(PID.TID 0000.0001)                -7.100000000000000E+02,      /* K = 36 */
(PID.TID 0000.0001)                -7.300000000000000E+02,      /* K = 37 */
(PID.TID 0000.0001)                -7.500000000000000E+02,      /* K = 38 */
(PID.TID 0000.0001)                -7.700000000000000E+02,      /* K = 39 */
(PID.TID 0000.0001)                -7.900000000000000E+02,      /* K = 40 */
(PID.TID 0000.0001)                -8.100000000000000E+02,      /* K = 41 */
(PID.TID 0000.0001)                -8.300000000000000E+02,      /* K = 42 */
(PID.TID 0000.0001)                -8.500000000000000E+02,      /* K = 43 */
(PID.TID 0000.0001)                -8.700000000000000E+02,      /* K = 44 */
(PID.TID 0000.0001)                -8.900000000000000E+02,      /* K = 45 */
(PID.TID 0000.0001)                -9.100000000000000E+02,      /* K = 46 */
(PID.TID 0000.0001)                -9.300000000000000E+02,      /* K = 47 */
(PID.TID 0000.0001)                -9.500000000000000E+02,      /* K = 48 */
(PID.TID 0000.0001)                -9.700000000000000E+02,      /* K = 49 */
(PID.TID 0000.0001)                -9.900000000000000E+02,      /* K = 50 */
(PID.TID 0000.0001)                -1.010000000000000E+03,      /* K = 51 */
(PID.TID 0000.0001)                -1.030000000000000E+03,      /* K = 52 */
(PID.TID 0000.0001)                -1.050000000000000E+03,      /* K = 53 */
(PID.TID 0000.0001)                -1.070000000000000E+03,      /* K = 54 */
(PID.TID 0000.0001)                -1.090000000000000E+03       /* K = 55 */
(PID.TID 0000.0001)     ;
(PID.TID 0000.0001) rF =   /* W-Interf. R coordinate (  units of r ) */
(PID.TID 0000.0001)                 0.000000000000000E+00,      /* K =  1 */
(PID.TID 0000.0001)                -2.000000000000000E+01,      /* K =  2 */
(PID.TID 0000.0001)                -4.000000000000000E+01,      /* K =  3 */
(PID.TID 0000.0001)                -6.000000000000000E+01,      /* K =  4 */
(PID.TID 0000.0001)                -8.000000000000000E+01,      /* K =  5 */
(PID.TID 0000.0001)                -1.000000000000000E+02,      /* K =  6 */
(PID.TID 0000.0001)                -1.200000000000000E+02,      /* K =  7 */
(PID.TID 0000.0001)                -1.400000000000000E+02,      /* K =  8 */
(PID.TID 0000.0001)                -1.600000000000000E+02,      /* K =  9 */
(PID.TID 0000.0001)                -1.800000000000000E+02,      /* K = 10 */
(PID.TID 0000.0001)                -2.000000000000000E+02,      /* K = 11 */
(PID.TID 0000.0001)                -2.200000000000000E+02,      /* K = 12 */
(PID.TID 0000.0001)                -2.400000000000000E+02,      /* K = 13 */
(PID.TID 0000.0001)                -2.600000000000000E+02,      /* K = 14 */
(PID.TID 0000.0001)                -2.800000000000000E+02,      /* K = 15 */
(PID.TID 0000.0001)                -3.000000000000000E+02,      /* K = 16 */
(PID.TID 0000.0001)                -3.200000000000000E+02,      /* K = 17 */
(PID.TID 0000.0001)                -3.400000000000000E+02,      /* K = 18 */
(PID.TID 0000.0001)                -3.600000000000000E+02,      /* K = 19 */
(PID.TID 0000.0001)                -3.800000000000000E+02,      /* K = 20 */
(PID.TID 0000.0001)                -4.000000000000000E+02,      /* K = 21 */
(PID.TID 0000.0001)                -4.200000000000000E+02,      /* K = 22 */
(PID.TID 0000.0001)                -4.400000000000000E+02,      /* K = 23 */
(PID.TID 0000.0001)                -4.600000000000000E+02,      /* K = 24 */
(PID.TID 0000.0001)                -4.800000000000000E+02,      /* K = 25 */
(PID.TID 0000.0001)                -5.000000000000000E+02,      /* K = 26 */
(PID.TID 0000.0001)                -5.200000000000000E+02,      /* K = 27 */
(PID.TID 0000.0001)                -5.400000000000000E+02,      /* K = 28 */
(PID.TID 0000.0001)                -5.600000000000000E+02,      /* K = 29 */
(PID.TID 0000.0001)                -5.800000000000000E+02,      /* K = 30 */
(PID.TID 0000.0001)                -6.000000000000000E+02,      /* K = 31 */
(PID.TID 0000.0001)                -6.200000000000000E+02,      /* K = 32 */
(PID.TID 0000.0001)                -6.400000000000000E+02,      /* K = 33 */
(PID.TID 0000.0001)                -6.600000000000000E+02,      /* K = 34 */
(PID.TID 0000.0001)                -6.800000000000000E+02,      /* K = 35 */
(PID.TID 0000.0001)                -7.000000000000000E+02,      /* K = 36 */
(PID.TID 0000.0001)                -7.200000000000000E+02,      /* K = 37 */
(PID.TID 0000.0001)                -7.400000000000000E+02,      /* K = 38 */
(PID.TID 0000.0001)                -7.600000000000000E+02,      /* K = 39 */
(PID.TID 0000.0001)                -7.800000000000000E+02,      /* K = 40 */
(PID.TID 0000.0001)                -8.000000000000000E+02,      /* K = 41 */
(PID.TID 0000.0001)                -8.200000000000000E+02,      /* K = 42 */
(PID.TID 0000.0001)                -8.400000000000000E+02,      /* K = 43 */
(PID.TID 0000.0001)                -8.600000000000000E+02,      /* K = 44 */
(PID.TID 0000.0001)                -8.800000000000000E+02,      /* K = 45 */
(PID.TID 0000.0001)                -9.000000000000000E+02,      /* K = 46 */
(PID.TID 0000.0001)                -9.200000000000000E+02,      /* K = 47 */
(PID.TID 0000.0001)                -9.400000000000000E+02,      /* K = 48 */
(PID.TID 0000.0001)                -9.600000000000000E+02,      /* K = 49 */
(PID.TID 0000.0001)                -9.800000000000000E+02,      /* K = 50 */
(PID.TID 0000.0001)                -1.000000000000000E+03,      /* K = 51 */
(PID.TID 0000.0001)                -1.020000000000000E+03,      /* K = 52 */
(PID.TID 0000.0001)                -1.040000000000000E+03,      /* K = 53 */
(PID.TID 0000.0001)                -1.060000000000000E+03,      /* K = 54 */
(PID.TID 0000.0001)                -1.080000000000000E+03,      /* K = 55 */
(PID.TID 0000.0001)                -1.100000000000000E+03       /* K = 56 */
(PID.TID 0000.0001)     ;
(PID.TID 0000.0001) deepFacC = /* deep-model grid factor @ cell-Center (-) */
(PID.TID 0000.0001)    55 @  1.000000000000000E+00              /* K =  1: 55 */
(PID.TID 0000.0001)     ;
(PID.TID 0000.0001) deepFacF = /* deep-model grid factor @ W-Interface (-) */
(PID.TID 0000.0001)    56 @  1.000000000000000E+00              /* K =  1: 56 */
(PID.TID 0000.0001)     ;
(PID.TID 0000.0001) rVel2wUnit = /* convert units: rVel -> wSpeed (=1 if z-coord)*/
(PID.TID 0000.0001)    56 @  1.000000000000000E+00              /* K =  1: 56 */
(PID.TID 0000.0001)     ;
(PID.TID 0000.0001) wUnit2rVel = /* convert units: wSpeed -> rVel (=1 if z-coord)*/
(PID.TID 0000.0001)    56 @  1.000000000000000E+00              /* K =  1: 56 */
(PID.TID 0000.0001)     ;
(PID.TID 0000.0001) dBdrRef = /* Vertical grad. of reference buoyancy [(m/s/r)^2] */
(PID.TID 0000.0001)    55 @  0.000000000000000E+00              /* K =  1: 55 */
(PID.TID 0000.0001)     ;
(PID.TID 0000.0001) rotateGrid = /* use rotated grid ( True/False ) */
(PID.TID 0000.0001)                   F
(PID.TID 0000.0001)     ;
(PID.TID 0000.0001) phiEuler = /* Euler angle, rotation about original z-coordinate [rad] */
(PID.TID 0000.0001)                 0.000000000000000E+00
(PID.TID 0000.0001)     ;
(PID.TID 0000.0001) thetaEuler = /* Euler angle, rotation about new x-coordinate [rad] */
(PID.TID 0000.0001)                 0.000000000000000E+00
(PID.TID 0000.0001)     ;
(PID.TID 0000.0001) psiEuler = /* Euler angle, rotation about new z-coordinate [rad] */
(PID.TID 0000.0001)                 0.000000000000000E+00
(PID.TID 0000.0001)     ;
(PID.TID 0000.0001) dxF =  /* dxF(:,1,:,1) ( units: m ) */
(PID.TID 0000.0001)    31 @  1.000000000000000E+03              /* I =  1: 31 */
(PID.TID 0000.0001)     ;
(PID.TID 0000.0001) dxF =  /* dxF(1,:,1,:) ( units: m ) */
(PID.TID 0000.0001)    17 @  1.000000000000000E+03              /* J =  1: 17 */
(PID.TID 0000.0001)     ;
(PID.TID 0000.0001) dyF =  /* dyF(:,1,:,1) ( units: m ) */
(PID.TID 0000.0001)    31 @  1.000000000000000E+03              /* I =  1: 31 */
(PID.TID 0000.0001)     ;
(PID.TID 0000.0001) dyF =  /* dyF(1,:,1,:) ( units: m ) */
(PID.TID 0000.0001)    17 @  1.000000000000000E+03              /* J =  1: 17 */
(PID.TID 0000.0001)     ;
(PID.TID 0000.0001) dxG =  /* dxG(:,1,:,1) ( units: m ) */
(PID.TID 0000.0001)    31 @  1.000000000000000E+03              /* I =  1: 31 */
(PID.TID 0000.0001)     ;
(PID.TID 0000.0001) dxG =  /* dxG(1,:,1,:) ( units: m ) */
(PID.TID 0000.0001)    17 @  1.000000000000000E+03              /* J =  1: 17 */
(PID.TID 0000.0001)     ;
(PID.TID 0000.0001) dyG =  /* dyG(:,1,:,1) ( units: m ) */
(PID.TID 0000.0001)    31 @  1.000000000000000E+03              /* I =  1: 31 */
(PID.TID 0000.0001)     ;
(PID.TID 0000.0001) dyG =  /* dyG(1,:,1,:) ( units: m ) */
(PID.TID 0000.0001)    17 @  1.000000000000000E+03              /* J =  1: 17 */
(PID.TID 0000.0001)     ;
(PID.TID 0000.0001) dxC =  /* dxC(:,1,:,1) ( units: m ) */
(PID.TID 0000.0001)    31 @  1.000000000000000E+03              /* I =  1: 31 */
(PID.TID 0000.0001)     ;
(PID.TID 0000.0001) dxC =  /* dxC(1,:,1,:) ( units: m ) */
(PID.TID 0000.0001)    17 @  1.000000000000000E+03              /* J =  1: 17 */
(PID.TID 0000.0001)     ;
(PID.TID 0000.0001) dyC =  /* dyC(:,1,:,1) ( units: m ) */
(PID.TID 0000.0001)    31 @  1.000000000000000E+03              /* I =  1: 31 */
(PID.TID 0000.0001)     ;
(PID.TID 0000.0001) dyC =  /* dyC(1,:,1,:) ( units: m ) */
(PID.TID 0000.0001)    17 @  1.000000000000000E+03              /* J =  1: 17 */
(PID.TID 0000.0001)     ;
(PID.TID 0000.0001) dxV =  /* dxV(:,1,:,1) ( units: m ) */
(PID.TID 0000.0001)    31 @  1.000000000000000E+03              /* I =  1: 31 */
(PID.TID 0000.0001)     ;
(PID.TID 0000.0001) dxV =  /* dxV(1,:,1,:) ( units: m ) */
(PID.TID 0000.0001)    17 @  1.000000000000000E+03              /* J =  1: 17 */
(PID.TID 0000.0001)     ;
(PID.TID 0000.0001) dyU =  /* dyU(:,1,:,1) ( units: m ) */
(PID.TID 0000.0001)    31 @  1.000000000000000E+03              /* I =  1: 31 */
(PID.TID 0000.0001)     ;
(PID.TID 0000.0001) dyU =  /* dyU(1,:,1,:) ( units: m ) */
(PID.TID 0000.0001)    17 @  1.000000000000000E+03              /* J =  1: 17 */
(PID.TID 0000.0001)     ;
(PID.TID 0000.0001) rA  =  /* rA (:,1,:,1) ( units: m^2 ) */
(PID.TID 0000.0001)    31 @  1.000000000000000E+06              /* I =  1: 31 */
(PID.TID 0000.0001)     ;
(PID.TID 0000.0001) rA  =  /* rA (1,:,1,:) ( units: m^2 ) */
(PID.TID 0000.0001)    17 @  1.000000000000000E+06              /* J =  1: 17 */
(PID.TID 0000.0001)     ;
(PID.TID 0000.0001) rAw =  /* rAw(:,1,:,1) ( units: m^2 ) */
(PID.TID 0000.0001)    31 @  1.000000000000000E+06              /* I =  1: 31 */
(PID.TID 0000.0001)     ;
(PID.TID 0000.0001) rAw =  /* rAw(1,:,1,:) ( units: m^2 ) */
(PID.TID 0000.0001)    17 @  1.000000000000000E+06              /* J =  1: 17 */
(PID.TID 0000.0001)     ;
(PID.TID 0000.0001) rAs =  /* rAs(:,1,:,1) ( units: m^2 ) */
(PID.TID 0000.0001)    31 @  1.000000000000000E+06              /* I =  1: 31 */
(PID.TID 0000.0001)     ;
(PID.TID 0000.0001) rAs =  /* rAs(1,:,1,:) ( units: m^2 ) */
(PID.TID 0000.0001)    17 @  1.000000000000000E+06              /* J =  1: 17 */
(PID.TID 0000.0001)     ;
(PID.TID 0000.0001) globalArea = /* Integrated horizontal Area (m^2) */
(PID.TID 0000.0001)                 5.940000000000000E+09
(PID.TID 0000.0001)     ;
(PID.TID 0000.0001) // =======================================================
(PID.TID 0000.0001) // End of Model config. summary
(PID.TID 0000.0001) // =======================================================
(PID.TID 0000.0001) 
(PID.TID 0000.0001) == Packages configuration : Check & print summary ==
(PID.TID 0000.0001) 
(PID.TID 0000.0001) OBCS_CHECK: #define ALLOW_OBCS
(PID.TID 0000.0001) OBCS_CHECK: start summary:
(PID.TID 0000.0001) useOBCSprescribe = /* prescribe OB values */
(PID.TID 0000.0001)                   T
(PID.TID 0000.0001)     ;
(PID.TID 0000.0001) useOBCSbalance = /* balance the flow through OB */
(PID.TID 0000.0001)                   T
(PID.TID 0000.0001)     ;
(PID.TID 0000.0001) OBCSbalanceSurf = /* include surf. flux in balance */
(PID.TID 0000.0001)                   F
(PID.TID 0000.0001)     ;
(PID.TID 0000.0001) OBCS_balanceFacN = /* Northern OB Factor for balancing OB flow [-] */
(PID.TID 0000.0001)                 1.000000000000000E+00
(PID.TID 0000.0001)     ;
(PID.TID 0000.0001) OBCS_balanceFacS = /* Southern OB Factor for balancing OB flow [-] */
(PID.TID 0000.0001)                 1.000000000000000E+00
(PID.TID 0000.0001)     ;
(PID.TID 0000.0001) OBCS_balanceFacE = /* Eastern  OB Factor for balancing OB flow [-] */
(PID.TID 0000.0001)                 1.000000000000000E+00
(PID.TID 0000.0001)     ;
(PID.TID 0000.0001) OBCS_balanceFacW = /* Western  OB Factor for balancing OB flow [-] */
(PID.TID 0000.0001)                 1.000000000000000E+00
(PID.TID 0000.0001)     ;
(PID.TID 0000.0001) OBCS_uvApplyFac = /* Factor to apply to U,V 2nd column/row */
(PID.TID 0000.0001)                 1.000000000000000E+00
(PID.TID 0000.0001)     ;
(PID.TID 0000.0001) OBCS_u1_adv_T = /* Temp uses upwind adv-scheme @ OB */
(PID.TID 0000.0001)                       0
(PID.TID 0000.0001)     ;
(PID.TID 0000.0001) OBCS_u1_adv_S = /* Salt uses upwind adv-scheme @ OB */
(PID.TID 0000.0001)                       0
(PID.TID 0000.0001)     ;
(PID.TID 0000.0001) OBCS_monitorFreq = /* monitor output frequency [s] */
(PID.TID 0000.0001)                 1.000000000000000E+02
(PID.TID 0000.0001)     ;
(PID.TID 0000.0001) OBCS_monSelect = /* select group of variables to monitor */
(PID.TID 0000.0001)                       0
(PID.TID 0000.0001)     ;
(PID.TID 0000.0001) useOBCStides = /* apply tidal forcing through OB */
(PID.TID 0000.0001)                   F
(PID.TID 0000.0001)     ;
(PID.TID 0000.0001) tidalPeriod = /* (s) */
(PID.TID 0000.0001)    10 @  0.000000000000000E+00              /* I =  1: 10 */
(PID.TID 0000.0001)     ;
(PID.TID 0000.0001) OB_indexNone = /* null value for OB index (i.e. no OB) */
(PID.TID 0000.0001)                     -99
(PID.TID 0000.0001)     ;
(PID.TID 0000.0001) ======== Tile bi=   1 , bj=   1 ========
(PID.TID 0000.0001)  OB_Jn = /* Northern OB local indices */
(PID.TID 0000.0001)    37 @      -99                            /* I = -2: 34 */
(PID.TID 0000.0001)  OB_Js = /* Southern OB local indices */
(PID.TID 0000.0001)    37 @      -99                            /* I = -2: 34 */
(PID.TID 0000.0001)  OB_Ie = /* Eastern OB local indices */
(PID.TID 0000.0001)    23 @      -99                            /* J = -2: 20 */
(PID.TID 0000.0001)  OB_Iw = /* Western OB local indices */
(PID.TID 0000.0001)    23 @      -99                            /* J = -2: 20 */
(PID.TID 0000.0001) OBCS_CHECK: end summary.
(PID.TID 0000.0001) OBCS_CHECK: set-up OK
(PID.TID 0000.0001) OBCS_CHECK: check Inside Mask and OB locations: OK
(PID.TID 0000.0001) SHELFICE_CHECK: #define ALLOW_SHELFICE
(PID.TID 0000.0001) 
(PID.TID 0000.0001) SHELFICE_CHECK: start of SHELFICE config. summary
(PID.TID 0000.0001) SHELFICEisOn = /* package is turned on */
(PID.TID 0000.0001)                   T
(PID.TID 0000.0001)     ;
(PID.TID 0000.0001) useISOMIPTD = /* use simple isomip thermodynamics */
(PID.TID 0000.0001)                   F
(PID.TID 0000.0001)     ;
(PID.TID 0000.0001) SHELFICEconserve = /* use a conservative form of boundary conditions */
(PID.TID 0000.0001)                   T
(PID.TID 0000.0001)     ;
(PID.TID 0000.0001) SHELFICEboundaryLayer = /* use simple boundary layer scheme to suppress noise */
(PID.TID 0000.0001)                   T
(PID.TID 0000.0001)     ;
(PID.TID 0000.0001) SHI_withBL_realFWflux = /* use real FW Flux in boundary layer scheme */
(PID.TID 0000.0001)                   T
(PID.TID 0000.0001)     ;
(PID.TID 0000.0001) SHELFICEadvDiffHeatFlux = /* use adv.-diff. instead of just diff. heat flux into the ice shelf */
(PID.TID 0000.0001)                   F
(PID.TID 0000.0001)     ;
(PID.TID 0000.0001) SHELFICEMassStepping = /* step forward ice shelf mass/thickness */
(PID.TID 0000.0001)                   T
(PID.TID 0000.0001)     ;
(PID.TID 0000.0001) no_slip_shelfice = /* use no slip boundary conditions */
(PID.TID 0000.0001)                   F
(PID.TID 0000.0001)     ;
(PID.TID 0000.0001) SHELFICEdragLinear    = /* linear drag coefficient */
(PID.TID 0000.0001)                 0.000000000000000E+00
(PID.TID 0000.0001)     ;
(PID.TID 0000.0001) SHELFICEdragQuadratic = /* quadratic drag coefficient */
(PID.TID 0000.0001)                 9.700000000000000E-03
(PID.TID 0000.0001)     ;
(PID.TID 0000.0001) SHELFICEselectDragQuadr = /* select quadratic drag option */
(PID.TID 0000.0001)                       0
(PID.TID 0000.0001)     ;
(PID.TID 0000.0001) SHELFICElatentHeat      = /* latent heat of ice */
(PID.TID 0000.0001)                 3.340000000000000E+05
(PID.TID 0000.0001)     ;
(PID.TID 0000.0001) SHELFICEheatCapacity_Cp = /* heat capacity of ice shelf */
(PID.TID 0000.0001)                 2.000000000000000E+03
(PID.TID 0000.0001)     ;
(PID.TID 0000.0001) rhoShelfice   = /* density of ice shelf */
(PID.TID 0000.0001)                 9.170000000000000E+02
(PID.TID 0000.0001)     ;
(PID.TID 0000.0001) SHELFICEkappa = /* thermal conductivity of ice shelf */
(PID.TID 0000.0001)                 1.540000000000000E-06
(PID.TID 0000.0001)     ;
(PID.TID 0000.0001) SHELFICEthetaSurface = /* surface temperature above i.s. */
(PID.TID 0000.0001)                -2.000000000000000E+01
(PID.TID 0000.0001)     ;
(PID.TID 0000.0001) SHELFICEheatTransCoeff = /* heat transfer coefficient */
(PID.TID 0000.0001)                 1.350000000000000E-02
(PID.TID 0000.0001)     ;
(PID.TID 0000.0001) SHELFICEsaltTransCoeff = /* salt transfer coefficient */
(PID.TID 0000.0001)                 2.650000000000000E-04
(PID.TID 0000.0001)     ;
(PID.TID 0000.0001) SHELFICEuseGammaFrict = /* use velocity dependent exchange coefficients */
(PID.TID 0000.0001)                   T
(PID.TID 0000.0001)     ;
(PID.TID 0000.0001) SHI_withBL_uStarTopDz = /* compute uStar from top Dz averaged uVel,vVel */
(PID.TID 0000.0001)                   F
(PID.TID 0000.0001)     ;
(PID.TID 0000.0001) shiCdrag   = /* quadr. drag coefficient for uStar */
(PID.TID 0000.0001)                 9.700000000000000E-03
(PID.TID 0000.0001)     ;
(PID.TID 0000.0001) shiZetaN   = /* parameter for gammaTurb */
(PID.TID 0000.0001)                 5.200000000000000E-02
(PID.TID 0000.0001)     ;
(PID.TID 0000.0001) shiRc      = /* parameter for gammaTurb (not used) */
(PID.TID 0000.0001)                 2.000000000000000E-01
(PID.TID 0000.0001)     ;
(PID.TID 0000.0001) shiPrandtl = /* const. Prandtl No. for gammaTurb */
(PID.TID 0000.0001)                 1.380000000000000E+01
(PID.TID 0000.0001)     ;
(PID.TID 0000.0001) shiSchmidt = /* const. Schmidt No. for gammaTurb */
(PID.TID 0000.0001)                 2.432000000000000E+03
(PID.TID 0000.0001)     ;
(PID.TID 0000.0001) shiKinVisc = /* const. kin. viscosity for gammaTurb */
(PID.TID 0000.0001)                 1.950000000000000E-06
(PID.TID 0000.0001)     ;
(PID.TID 0000.0001) SHELFICEremeshFrequency = /* Frequency (in s) of Remeshing */
(PID.TID 0000.0001)                 3.600000000000000E+03
(PID.TID 0000.0001)     ;
(PID.TID 0000.0001) SHELFICEsplitThreshold = /* hFac remesh threshold above which cell splits */
(PID.TID 0000.0001)                 1.300000000000000E+00
(PID.TID 0000.0001)     ;
(PID.TID 0000.0001) SHELFICEmergeThreshold = /* hFac remesh threshold below which cell merges */
(PID.TID 0000.0001)                 2.900000000000000E-01
(PID.TID 0000.0001)     ;
(PID.TID 0000.0001) SHELFICEloadAnomalyFile = /* file name of loaded loadAnomaly field */
(PID.TID 0000.0001)               ''
(PID.TID 0000.0001)     ;
(PID.TID 0000.0001) SHELFICEmassFile = /* file name of loaded mass field */
(PID.TID 0000.0001)               'shelficemassinit.bin'
(PID.TID 0000.0001)     ;
(PID.TID 0000.0001) SHELFICEtopoFile = /* file name of loaded under-ice topography */
(PID.TID 0000.0001)               'shelftopo.round.bin'
(PID.TID 0000.0001)     ;
(PID.TID 0000.0001) SHELFICEMassDynTendFile = /* file name of loaded dynamic mass tendency field */
(PID.TID 0000.0001)               'shelfice_dmdt.bin'
(PID.TID 0000.0001)     ;
(PID.TID 0000.0001) SHELFICEwriteState  = /* do simple standard output */
(PID.TID 0000.0001)                   T
(PID.TID 0000.0001)     ;
(PID.TID 0000.0001) SHELFICE_dump_mdsio = /* use mdsio for snapshots */
(PID.TID 0000.0001)                   T
(PID.TID 0000.0001)     ;
(PID.TID 0000.0001) SHELFICE_tave_mdsio = /* use mdsio for time averages */
(PID.TID 0000.0001)                   T
(PID.TID 0000.0001)     ;
(PID.TID 0000.0001) SHELFICE_dump_mnc   = /* use netcdf for snapshots */
(PID.TID 0000.0001)                   F
(PID.TID 0000.0001)     ;
(PID.TID 0000.0001) SHELFICE_tave_mnc   = /* use netcdf for time averages */
(PID.TID 0000.0001)                   F
(PID.TID 0000.0001)     ;
(PID.TID 0000.0001) SHELFICE_dumpFreq = /* analoguous to dumpFreq */
(PID.TID 0000.0001)                 8.640000000000000E+05
(PID.TID 0000.0001)     ;
(PID.TID 0000.0001) SHELFICE_taveFreq = /* analoguous to taveFreq */
(PID.TID 0000.0001)                 0.000000000000000E+00
(PID.TID 0000.0001)     ;
(PID.TID 0000.0001) SHELFICE_CHECK: end of SHELFICE config. summary
(PID.TID 0000.0001) GAD_CHECK: #define ALLOW_GENERIC_ADVDIFF
(PID.TID 0000.0001) // =======================================================
(PID.TID 0000.0001) // Check Model config. (CONFIG_CHECK):
(PID.TID 0000.0001) // CONFIG_CHECK : Normal End
(PID.TID 0000.0001) // =======================================================
(PID.TID 0000.0001) 
(PID.TID 0000.0001)  nRecords = 333 ; filePrec =  64 ; fileIter =       864
(PID.TID 0000.0001)     nDims =   2 , dims:
(PID.TID 0000.0001)    1:  62   1  62
(PID.TID 0000.0001)    2: 102   1 102
(PID.TID 0000.0001)     nFlds =   9 , nFl3D =   6 , fields:
(PID.TID 0000.0001)  >Uvel    < >Vvel    < >Theta   < >Salt    < >GuNm1   < >GvNm1   < >EtaN    < >dEtaHdt < >EtaH    <
(PID.TID 0000.0001) missingVal=  1.00000000000000E+00 ; nTimRec =   1 , timeList:
(PID.TID 0000.0001)   8.640000000000E+04
(PID.TID 0000.0001) READ_MFLDS_3D_RL: read field: "Uvel    ", #   1 in fldList, rec=   1
(PID.TID 0000.0001) READ_MFLDS_3D_RL: read field: "Vvel    ", #   2 in fldList, rec=   2
(PID.TID 0000.0001) READ_MFLDS_3D_RL: read field: "Theta   ", #   3 in fldList, rec=   3
(PID.TID 0000.0001) READ_MFLDS_3D_RL: read field: "Salt    ", #   4 in fldList, rec=   4
(PID.TID 0000.0001) READ_MFLDS_3D_RL: read field: "GuNm1   ", #   5 in fldList, rec=   5
(PID.TID 0000.0001) READ_MFLDS_3D_RL: read field: "GvNm1   ", #   6 in fldList, rec=   6
(PID.TID 0000.0001) READ_MFLDS_3D_RL: read field: "EtaN    ", #   7 in fldList, rec= 331
(PID.TID 0000.0001) READ_MFLDS_3D_RL: read field: "dEtaHdt ", #   8 in fldList, rec= 332
(PID.TID 0000.0001) READ_MFLDS_3D_RL: read field: "EtaH    ", #   9 in fldList, rec= 333
(PID.TID 0000.0001) READ_MFLDS_CHECK: - normal end ; reset MFLDS file-name: pickup.0000000864
(PID.TID 0000.0001)  nRecords =   2 ; filePrec =  64 ; fileIter =       864
(PID.TID 0000.0001)     nDims =   2 , dims:
(PID.TID 0000.0001)    1:  62   1  62
(PID.TID 0000.0001)    2: 102   1 102
(PID.TID 0000.0001)     nFlds =   2 , nFl3D =   0 , fields:
(PID.TID 0000.0001)  >SHI_mass< >R_Shelfi<
(PID.TID 0000.0001) missingVal=  1.00000000000000E+00 ; nTimRec =   1 , timeList:
(PID.TID 0000.0001)   8.640000000000E+04
(PID.TID 0000.0001) READ_MFLDS_3D_RL: read field: "SHI_mass", #   1 in fldList, rec=   1
(PID.TID 0000.0001) READ_MFLDS_CHECK: - normal end ; reset MFLDS file-name: pickup_shelfice.0000000864
(PID.TID 0000.0001)  OBCS_FIELDS_LOAD: Reading initial data:       864  8.640000000000E+04
(PID.TID 0000.0001) // =======================================================
(PID.TID 0000.0001) // Model current state
(PID.TID 0000.0001) // =======================================================
(PID.TID 0000.0001) 
(PID.TID 0000.0001) // =======================================================
(PID.TID 0000.0001) // Begin MONITOR dynamic field statistics
(PID.TID 0000.0001) // =======================================================
(PID.TID 0000.0001) %MON time_tsnumber                =                   864
(PID.TID 0000.0001) %MON time_secondsf                =   8.6400000000000E+04
(PID.TID 0000.0001) %MON dynstat_eta_max              =   5.7978665037532E+00
(PID.TID 0000.0001) %MON dynstat_eta_min              =  -1.4174175866518E+01
(PID.TID 0000.0001) %MON dynstat_eta_mean             =  -2.5257479286746E+00
(PID.TID 0000.0001) %MON dynstat_eta_sd               =   4.9415648004891E+00
(PID.TID 0000.0001) %MON dynstat_eta_del2             =   1.9058298346131E-01
(PID.TID 0000.0001) %MON dynstat_uvel_max             =   3.7898372309737E-03
(PID.TID 0000.0001) %MON dynstat_uvel_min             =  -1.4740447539704E-02
(PID.TID 0000.0001) %MON dynstat_uvel_mean            =  -1.3148507215783E-09
(PID.TID 0000.0001) %MON dynstat_uvel_sd              =   3.8888386025377E-04
(PID.TID 0000.0001) %MON dynstat_uvel_del2            =   6.3395546076303E-07
(PID.TID 0000.0001) %MON dynstat_vvel_max             =   1.1399429717843E-02
(PID.TID 0000.0001) %MON dynstat_vvel_min             =  -4.1091648138210E-03
(PID.TID 0000.0001) %MON dynstat_vvel_mean            =  -1.9938272730620E-08
(PID.TID 0000.0001) %MON dynstat_vvel_sd              =   2.1919631372204E-04
(PID.TID 0000.0001) %MON dynstat_vvel_del2            =   5.7996006479520E-07
(PID.TID 0000.0001) %MON dynstat_wvel_max             =   5.8927384549229E-04
(PID.TID 0000.0001) %MON dynstat_wvel_min             =  -5.9992516507010E-04
(PID.TID 0000.0001) %MON dynstat_wvel_mean            =   2.2144519917132E-10
(PID.TID 0000.0001) %MON dynstat_wvel_sd              =   1.1567029693274E-05
(PID.TID 0000.0001) %MON dynstat_wvel_del2            =   4.7281362927225E-08
(PID.TID 0000.0001) %MON dynstat_theta_max            =   1.2000000000000E+00
(PID.TID 0000.0001) %MON dynstat_theta_min            =  -1.0000000000000E+00
(PID.TID 0000.0001) %MON dynstat_theta_mean           =   5.6528807044149E-01
(PID.TID 0000.0001) %MON dynstat_theta_sd             =   8.4900636918495E-01
(PID.TID 0000.0001) %MON dynstat_theta_del2           =   1.6261618425303E-06
(PID.TID 0000.0001) %MON dynstat_salt_max             =   3.4700000000000E+01
(PID.TID 0000.0001) %MON dynstat_salt_min             =   3.4000000000000E+01
(PID.TID 0000.0001) %MON dynstat_salt_mean            =   3.4498029059430E+01
(PID.TID 0000.0001) %MON dynstat_salt_sd              =   2.7013767947107E-01
(PID.TID 0000.0001) %MON dynstat_salt_del2            =   6.4045131742287E-07
(PID.TID 0000.0001) %MON advcfl_uvel_max              =   1.4740447539704E-03
(PID.TID 0000.0001) %MON advcfl_vvel_max              =   1.1399429717843E-03
(PID.TID 0000.0001) %MON advcfl_wvel_max              =   2.9996258253505E-03
(PID.TID 0000.0001) %MON advcfl_W_hf_max              =   2.9996258253505E-03
(PID.TID 0000.0001) %MON pe_b_mean                    =   1.9429994169100E-01
(PID.TID 0000.0001) %MON ke_max                       =   6.6583358564882E-05
(PID.TID 0000.0001) %MON ke_mean                      =   9.8216647163697E-08
(PID.TID 0000.0001) %MON ke_vol                       =   4.6182970357632E+12
(PID.TID 0000.0001) // =======================================================
(PID.TID 0000.0001) // End MONITOR dynamic field statistics
(PID.TID 0000.0001) // =======================================================
(PID.TID 0000.0001) // =======================================================
(PID.TID 0000.0001) // Begin OBCS MONITOR field statistics
(PID.TID 0000.0001) // =======================================================
(PID.TID 0000.0001) %MON obc_N_vVel_max               =  -3.8947119383262E-08
(PID.TID 0000.0001) %MON obc_N_vVel_min               =  -3.8947119383262E-08
(PID.TID 0000.0001) %MON obc_N_vVel_mean              =  -3.8947119383262E-08
(PID.TID 0000.0001) %MON obc_N_vVel_sd                =  -4.7528869539566E-29
(PID.TID 0000.0001) %MON obc_N_vVel_Int               =  -2.5705098792953E+00
(PID.TID 0000.0001) // =======================================================
(PID.TID 0000.0001) // End OBCS MONITOR field statistics
(PID.TID 0000.0001) // =======================================================
(PID.TID 0000.0001) SOLVE_FOR_PRESSURE: putPmEinXvector =    F
 cg2d: Sum(rhs),rhsMax =   3.01050900513491E+00  4.53046949715077E+02
(PID.TID 0000.0001)      cg2d_init_res =   1.97401495438149E-06
(PID.TID 0000.0001)      cg2d_iters(min,last) =      -1      73
(PID.TID 0000.0001)      cg2d_last_res =   8.17258016386770E-12
(PID.TID 0000.0001) // =======================================================
(PID.TID 0000.0001) // Begin MONITOR dynamic field statistics
(PID.TID 0000.0001) // =======================================================
(PID.TID 0000.0001) %MON time_tsnumber                =                   865
(PID.TID 0000.0001) %MON time_secondsf                =   8.6500000000000E+04
(PID.TID 0000.0001) %MON dynstat_eta_max              =   5.7978692507781E+00
(PID.TID 0000.0001) %MON dynstat_eta_min              =  -1.4174169284131E+01
(PID.TID 0000.0001) %MON dynstat_eta_mean             =  -2.5257442997521E+00
(PID.TID 0000.0001) %MON dynstat_eta_sd               =   4.9415637161547E+00
(PID.TID 0000.0001) %MON dynstat_eta_del2             =   1.9058299219325E-01
(PID.TID 0000.0001) %MON dynstat_uvel_max             =   3.7949338878036E-03
(PID.TID 0000.0001) %MON dynstat_uvel_min             =  -1.4778888142289E-02
(PID.TID 0000.0001) %MON dynstat_uvel_mean            =  -1.3183503509569E-09
(PID.TID 0000.0001) %MON dynstat_uvel_sd              =   3.8995762980970E-04
(PID.TID 0000.0001) %MON dynstat_uvel_del2            =   6.3543197178701E-07
(PID.TID 0000.0001) %MON dynstat_vvel_max             =   1.1421003176473E-02
(PID.TID 0000.0001) %MON dynstat_vvel_min             =  -4.1192875097762E-03
(PID.TID 0000.0001) %MON dynstat_vvel_mean            =  -1.5913556793870E-08
(PID.TID 0000.0001) %MON dynstat_vvel_sd              =   2.1971879263792E-04
(PID.TID 0000.0001) %MON dynstat_vvel_del2            =   5.8121474976417E-07
(PID.TID 0000.0001) %MON dynstat_wvel_max             =   5.9097283771235E-04
(PID.TID 0000.0001) %MON dynstat_wvel_min             =  -6.0192996902046E-04
(PID.TID 0000.0001) %MON dynstat_wvel_mean            =   2.2200185422595E-10
(PID.TID 0000.0001) %MON dynstat_wvel_sd              =   1.1610337464220E-05
(PID.TID 0000.0001) %MON dynstat_wvel_del2            =   4.7566374039190E-08
(PID.TID 0000.0001) %MON dynstat_theta_max            =   1.2000000000000E+00
(PID.TID 0000.0001) %MON dynstat_theta_min            =  -1.0000000000000E+00
(PID.TID 0000.0001) %MON dynstat_theta_mean           =   5.6528767007225E-01
(PID.TID 0000.0001) %MON dynstat_theta_sd             =   8.4900620961516E-01
(PID.TID 0000.0001) %MON dynstat_theta_del2           =   1.6295670956540E-06
(PID.TID 0000.0001) %MON dynstat_salt_max             =   3.4700000000000E+01
(PID.TID 0000.0001) %MON dynstat_salt_min             =   3.4000000000000E+01
(PID.TID 0000.0001) %MON dynstat_salt_mean            =   3.4498028899930E+01
(PID.TID 0000.0001) %MON dynstat_salt_sd              =   2.7013762084491E-01
(PID.TID 0000.0001) %MON dynstat_salt_del2            =   6.4181929889494E-07
(PID.TID 0000.0001) %MON advcfl_uvel_max              =   1.4778888142289E-03
(PID.TID 0000.0001) %MON advcfl_vvel_max              =   1.1421003176473E-03
(PID.TID 0000.0001) %MON advcfl_wvel_max              =   3.0096498451023E-03
(PID.TID 0000.0001) %MON advcfl_W_hf_max              =   3.0096498451023E-03
(PID.TID 0000.0001) %MON pe_b_mean                    =  -6.8245563668909E-01
(PID.TID 0000.0001) %MON ke_max                       =   6.6929752856569E-05
(PID.TID 0000.0001) %MON ke_mean                      =   9.8741593145943E-08
(PID.TID 0000.0001) %MON ke_vol                       =   4.6182970573037E+12
(PID.TID 0000.0001) // =======================================================
(PID.TID 0000.0001) // End MONITOR dynamic field statistics
(PID.TID 0000.0001) // =======================================================
(PID.TID 0000.0001) // =======================================================
(PID.TID 0000.0001) // Begin OBCS MONITOR field statistics
(PID.TID 0000.0001) // =======================================================
(PID.TID 0000.0001) %MON obc_N_vVel_max               =  -3.5074840112105E-08
(PID.TID 0000.0001) %MON obc_N_vVel_min               =  -3.5074840112106E-08
(PID.TID 0000.0001) %MON obc_N_vVel_mean              =  -3.5074840112105E-08
(PID.TID 0000.0001) %MON obc_N_vVel_sd                =   1.0676628719050E-14
(PID.TID 0000.0001) %MON obc_N_vVel_Int               =  -2.3149394473989E+00
(PID.TID 0000.0001) // =======================================================
(PID.TID 0000.0001) // End OBCS MONITOR field statistics
(PID.TID 0000.0001) // =======================================================
 cg2d: Sum(rhs),rhsMax =   3.01050471730859E+00  4.53046943614114E+02
(PID.TID 0000.0001)      cg2d_init_res =   1.97993914695219E-06
(PID.TID 0000.0001)      cg2d_iters(min,last) =      -1      73
(PID.TID 0000.0001)      cg2d_last_res =   8.19920363028898E-12
(PID.TID 0000.0001) // =======================================================
(PID.TID 0000.0001) // Begin MONITOR dynamic field statistics
(PID.TID 0000.0001) // =======================================================
(PID.TID 0000.0001) %MON time_tsnumber                =                   866
(PID.TID 0000.0001) %MON time_secondsf                =   8.6600000000000E+04
(PID.TID 0000.0001) %MON dynstat_eta_max              =   5.7978719917590E+00
(PID.TID 0000.0001) %MON dynstat_eta_min              =  -1.4174162685071E+01
(PID.TID 0000.0001) %MON dynstat_eta_mean             =  -2.5257406683565E+00
(PID.TID 0000.0001) %MON dynstat_eta_sd               =   4.9415626315959E+00
(PID.TID 0000.0001) %MON dynstat_eta_del2             =   1.9058300095498E-01
(PID.TID 0000.0001) %MON dynstat_uvel_max             =   3.8000276924492E-03
(PID.TID 0000.0001) %MON dynstat_uvel_min             =  -1.4817398680560E-02
(PID.TID 0000.0001) %MON dynstat_uvel_mean            =  -1.3211929302628E-09
(PID.TID 0000.0001) %MON dynstat_uvel_sd              =   3.9103452280043E-04
(PID.TID 0000.0001) %MON dynstat_uvel_del2            =   6.3691256561044E-07
(PID.TID 0000.0001) %MON dynstat_vvel_max             =   1.1442597941877E-02
(PID.TID 0000.0001) %MON dynstat_vvel_min             =  -4.1294285894153E-03
(PID.TID 0000.0001) %MON dynstat_vvel_mean            =  -1.1737370590499E-08
(PID.TID 0000.0001) %MON dynstat_vvel_sd              =   2.2024295802665E-04
(PID.TID 0000.0001) %MON dynstat_vvel_del2            =   5.8247781487540E-07
(PID.TID 0000.0001) %MON dynstat_wvel_max             =   5.9267531321489E-04
(PID.TID 0000.0001) %MON dynstat_wvel_min             =  -6.0394073262280E-04
(PID.TID 0000.0001) %MON dynstat_wvel_mean            =   2.2270125599277E-10
(PID.TID 0000.0001) %MON dynstat_wvel_sd              =   1.1656709428415E-05
(PID.TID 0000.0001) %MON dynstat_wvel_del2            =   4.7877283563372E-08
(PID.TID 0000.0001) %MON dynstat_theta_max            =   1.2000000000000E+00
(PID.TID 0000.0001) %MON dynstat_theta_min            =  -1.0000000000000E+00
(PID.TID 0000.0001) %MON dynstat_theta_mean           =   5.6528726893365E-01
(PID.TID 0000.0001) %MON dynstat_theta_sd             =   8.4900604962904E-01
(PID.TID 0000.0001) %MON dynstat_theta_del2           =   1.6329794042462E-06
(PID.TID 0000.0001) %MON dynstat_salt_max             =   3.4700000000000E+01
(PID.TID 0000.0001) %MON dynstat_salt_min             =   3.4000000000000E+01
(PID.TID 0000.0001) %MON dynstat_salt_mean            =   3.4498028740123E+01
(PID.TID 0000.0001) %MON dynstat_salt_sd              =   2.7013756205676E-01
(PID.TID 0000.0001) %MON dynstat_salt_del2            =   6.4319013136590E-07
(PID.TID 0000.0001) %MON advcfl_uvel_max              =   1.4817398680560E-03
(PID.TID 0000.0001) %MON advcfl_vvel_max              =   1.1442597941877E-03
(PID.TID 0000.0001) %MON advcfl_wvel_max              =   3.0197036631140E-03
(PID.TID 0000.0001) %MON advcfl_W_hf_max              =   3.0197036631140E-03
(PID.TID 0000.0001) %MON pe_b_mean                    =  -6.8245458869909E-01
(PID.TID 0000.0001) %MON ke_max                       =   6.7277667745908E-05
(PID.TID 0000.0001) %MON ke_mean                      =   9.9269513252551E-08
(PID.TID 0000.0001) %MON ke_vol                       =   4.6182970788595E+12
(PID.TID 0000.0001) // =======================================================
(PID.TID 0000.0001) // End MONITOR dynamic field statistics
(PID.TID 0000.0001) // =======================================================
(PID.TID 0000.0001) // =======================================================
(PID.TID 0000.0001) // Begin OBCS MONITOR field statistics
(PID.TID 0000.0001) // =======================================================
(PID.TID 0000.0001) %MON obc_N_vVel_max               =  -3.1081846725601E-08
(PID.TID 0000.0001) %MON obc_N_vVel_min               =  -3.1081846725601E-08
(PID.TID 0000.0001) %MON obc_N_vVel_mean              =  -3.1081846725601E-08
(PID.TID 0000.0001) %MON obc_N_vVel_sd                =   7.7937340025188E-15
(PID.TID 0000.0001) %MON obc_N_vVel_Int               =  -2.0514018838896E+00
(PID.TID 0000.0001) // =======================================================
(PID.TID 0000.0001) // End OBCS MONITOR field statistics
(PID.TID 0000.0001) // =======================================================
 cg2d: Sum(rhs),rhsMax =   3.01050042662979E+00  4.53046937529619E+02
(PID.TID 0000.0001)      cg2d_init_res =   1.98607246507945E-06
(PID.TID 0000.0001)      cg2d_iters(min,last) =      -1      73
(PID.TID 0000.0001)      cg2d_last_res =   8.22573987019501E-12
(PID.TID 0000.0001) // =======================================================
(PID.TID 0000.0001) // Begin MONITOR dynamic field statistics
(PID.TID 0000.0001) // =======================================================
(PID.TID 0000.0001) %MON time_tsnumber                =                   867
(PID.TID 0000.0001) %MON time_secondsf                =   8.6700000000000E+04
(PID.TID 0000.0001) %MON dynstat_eta_max              =   5.7978747265162E+00
(PID.TID 0000.0001) %MON dynstat_eta_min              =  -1.4174156070650E+01
(PID.TID 0000.0001) %MON dynstat_eta_mean             =  -2.5257370346597E+00
(PID.TID 0000.0001) %MON dynstat_eta_sd               =   4.9415615468210E+00
(PID.TID 0000.0001) %MON dynstat_eta_del2             =   1.9058300974643E-01
(PID.TID 0000.0001) %MON dynstat_uvel_max             =   3.8051186079304E-03
(PID.TID 0000.0001) %MON dynstat_uvel_min             =  -1.4855979179355E-02
(PID.TID 0000.0001) %MON dynstat_uvel_mean            =  -1.3230378040333E-09
(PID.TID 0000.0001) %MON dynstat_uvel_sd              =   3.9211454152131E-04
(PID.TID 0000.0001) %MON dynstat_uvel_del2            =   6.3839725823463E-07
(PID.TID 0000.0001) %MON dynstat_vvel_max             =   1.1464213977194E-02
(PID.TID 0000.0001) %MON dynstat_vvel_min             =  -4.1395881223840E-03
(PID.TID 0000.0001) %MON dynstat_vvel_mean            =  -7.4176844101985E-09
(PID.TID 0000.0001) %MON dynstat_vvel_sd              =   2.2076835600966E-04
(PID.TID 0000.0001) %MON dynstat_vvel_del2            =   5.8374387463702E-07
(PID.TID 0000.0001) %MON dynstat_wvel_max             =   5.9438129622078E-04
(PID.TID 0000.0001) %MON dynstat_wvel_min             =  -6.0595744768179E-04
(PID.TID 0000.0001) %MON dynstat_wvel_mean            =   2.2274638339441E-10
(PID.TID 0000.0001) %MON dynstat_wvel_sd              =   1.1703609814952E-05
(PID.TID 0000.0001) %MON dynstat_wvel_del2            =   4.8189993104157E-08
(PID.TID 0000.0001) %MON dynstat_theta_max            =   1.2000000000000E+00
(PID.TID 0000.0001) %MON dynstat_theta_min            =  -1.0000000000000E+00
(PID.TID 0000.0001) %MON dynstat_theta_mean           =   5.6528686701827E-01
(PID.TID 0000.0001) %MON dynstat_theta_sd             =   8.4900588922909E-01
(PID.TID 0000.0001) %MON dynstat_theta_del2           =   1.6364045986513E-06
(PID.TID 0000.0001) %MON dynstat_salt_max             =   3.4700000000000E+01
(PID.TID 0000.0001) %MON dynstat_salt_min             =   3.4000000000000E+01
(PID.TID 0000.0001) %MON dynstat_salt_mean            =   3.4498028580005E+01
(PID.TID 0000.0001) %MON dynstat_salt_sd              =   2.7013750310731E-01
(PID.TID 0000.0001) %MON dynstat_salt_del2            =   6.4456531054500E-07
(PID.TID 0000.0001) %MON advcfl_uvel_max              =   1.4855979179355E-03
(PID.TID 0000.0001) %MON advcfl_vvel_max              =   1.1464213977194E-03
(PID.TID 0000.0001) %MON advcfl_wvel_max              =   3.0297872384089E-03
(PID.TID 0000.0001) %MON advcfl_W_hf_max              =   3.0297872384089E-03
(PID.TID 0000.0001) %MON pe_b_mean                    =  -6.8245353953359E-01
(PID.TID 0000.0001) %MON ke_max                       =   6.7627108687336E-05
(PID.TID 0000.0001) %MON ke_mean                      =   9.9800320722744E-08
(PID.TID 0000.0001) %MON ke_vol                       =   4.6182971004300E+12
(PID.TID 0000.0001) // =======================================================
(PID.TID 0000.0001) // End MONITOR dynamic field statistics
(PID.TID 0000.0001) // =======================================================
(PID.TID 0000.0001) // =======================================================
(PID.TID 0000.0001) // Begin OBCS MONITOR field statistics
(PID.TID 0000.0001) // =======================================================
(PID.TID 0000.0001) %MON obc_N_vVel_max               =  -2.6916132625522E-08
(PID.TID 0000.0001) %MON obc_N_vVel_min               =  -2.6916132625522E-08
(PID.TID 0000.0001) %MON obc_N_vVel_mean              =  -2.6916132625522E-08
(PID.TID 0000.0001) %MON obc_N_vVel_sd                =   5.3290705182008E-15
(PID.TID 0000.0001) %MON obc_N_vVel_Int               =  -1.7764647532844E+00
(PID.TID 0000.0001) // =======================================================
(PID.TID 0000.0001) // End OBCS MONITOR field statistics
(PID.TID 0000.0001) // =======================================================
 cg2d: Sum(rhs),rhsMax =   3.01049613324074E+00  4.53046931462312E+02
(PID.TID 0000.0001)      cg2d_init_res =   1.99216404219657E-06
(PID.TID 0000.0001)      cg2d_iters(min,last) =      -1      73
(PID.TID 0000.0001)      cg2d_last_res =   8.25244160719455E-12
(PID.TID 0000.0001) // =======================================================
(PID.TID 0000.0001) // Begin MONITOR dynamic field statistics
(PID.TID 0000.0001) // =======================================================
(PID.TID 0000.0001) %MON time_tsnumber                =                   868
(PID.TID 0000.0001) %MON time_secondsf                =   8.6800000000000E+04
(PID.TID 0000.0001) %MON dynstat_eta_max              =   5.7978774547343E+00
(PID.TID 0000.0001) %MON dynstat_eta_min              =  -1.4174149442264E+01
(PID.TID 0000.0001) %MON dynstat_eta_mean             =  -2.5257333987850E+00
(PID.TID 0000.0001) %MON dynstat_eta_sd               =   4.9415604618682E+00
(PID.TID 0000.0001) %MON dynstat_eta_del2             =   1.9058301856778E-01
(PID.TID 0000.0001) %MON dynstat_uvel_max             =   3.8102066045624E-03
(PID.TID 0000.0001) %MON dynstat_uvel_min             =  -1.4894629723185E-02
(PID.TID 0000.0001) %MON dynstat_uvel_mean            =  -1.3239872226080E-09
(PID.TID 0000.0001) %MON dynstat_uvel_sd              =   3.9319768792940E-04
(PID.TID 0000.0001) %MON dynstat_uvel_del2            =   6.3988606605990E-07
(PID.TID 0000.0001) %MON dynstat_vvel_max             =   1.1485851250707E-02
(PID.TID 0000.0001) %MON dynstat_vvel_min             =  -4.1497661323620E-03
(PID.TID 0000.0001) %MON dynstat_vvel_mean            =  -2.9639433142555E-09
(PID.TID 0000.0001) %MON dynstat_vvel_sd              =   2.2129452920901E-04
(PID.TID 0000.0001) %MON dynstat_vvel_del2            =   5.8500766766885E-07
(PID.TID 0000.0001) %MON dynstat_wvel_max             =   5.9609079430931E-04
(PID.TID 0000.0001) %MON dynstat_wvel_min             =  -6.0798012135429E-04
(PID.TID 0000.0001) %MON dynstat_wvel_mean            =   2.2252709156857E-10
(PID.TID 0000.0001) %MON dynstat_wvel_sd              =   1.1748561424193E-05
(PID.TID 0000.0001) %MON dynstat_wvel_del2            =   4.8481071184769E-08
(PID.TID 0000.0001) %MON dynstat_theta_max            =   1.2000000000000E+00
(PID.TID 0000.0001) %MON dynstat_theta_min            =  -1.0000000000000E+00
(PID.TID 0000.0001) %MON dynstat_theta_mean           =   5.6528646431934E-01
(PID.TID 0000.0001) %MON dynstat_theta_sd             =   8.4900572842110E-01
(PID.TID 0000.0001) %MON dynstat_theta_del2           =   1.6398481211069E-06
(PID.TID 0000.0001) %MON dynstat_salt_max             =   3.4700000000000E+01
(PID.TID 0000.0001) %MON dynstat_salt_min             =   3.4000000000000E+01
(PID.TID 0000.0001) %MON dynstat_salt_mean            =   3.4498028419574E+01
(PID.TID 0000.0001) %MON dynstat_salt_sd              =   2.7013744399843E-01
(PID.TID 0000.0001) %MON dynstat_salt_del2            =   6.4594623076273E-07
(PID.TID 0000.0001) %MON advcfl_uvel_max              =   1.4894629723185E-03
(PID.TID 0000.0001) %MON advcfl_vvel_max              =   1.1485851250707E-03
(PID.TID 0000.0001) %MON advcfl_wvel_max              =   3.0399006067714E-03
(PID.TID 0000.0001) %MON advcfl_W_hf_max              =   3.0399006067714E-03
(PID.TID 0000.0001) %MON pe_b_mean                    =  -6.8245248920834E-01
(PID.TID 0000.0001) %MON ke_max                       =   6.7978081343381E-05
(PID.TID 0000.0001) %MON ke_mean                      =   1.0033392698135E-07
(PID.TID 0000.0001) %MON ke_vol                       =   4.6182971220141E+12
(PID.TID 0000.0001) // =======================================================
(PID.TID 0000.0001) // End MONITOR dynamic field statistics
(PID.TID 0000.0001) // =======================================================
(PID.TID 0000.0001) // =======================================================
(PID.TID 0000.0001) // Begin OBCS MONITOR field statistics
(PID.TID 0000.0001) // =======================================================
(PID.TID 0000.0001) %MON obc_N_vVel_max               =  -2.2621419590550E-08
(PID.TID 0000.0001) %MON obc_N_vVel_min               =  -2.2621419590550E-08
(PID.TID 0000.0001) %MON obc_N_vVel_mean              =  -2.2621419590550E-08
(PID.TID 0000.0001) %MON obc_N_vVel_sd                =  -2.0214560696288E-29
(PID.TID 0000.0001) %MON obc_N_vVel_Int               =  -1.4930136929763E+00
(PID.TID 0000.0001) // =======================================================
(PID.TID 0000.0001) // End OBCS MONITOR field statistics
(PID.TID 0000.0001) // =======================================================
 cg2d: Sum(rhs),rhsMax =   3.01049183726938E+00  4.53046925413246E+02
(PID.TID 0000.0001)      cg2d_init_res =   1.99796632555215E-06
(PID.TID 0000.0001)      cg2d_iters(min,last) =      -1      73
(PID.TID 0000.0001)      cg2d_last_res =   8.27923105015626E-12
(PID.TID 0000.0001) // =======================================================
(PID.TID 0000.0001) // Begin MONITOR dynamic field statistics
(PID.TID 0000.0001) // =======================================================
(PID.TID 0000.0001) %MON time_tsnumber                =                   869
(PID.TID 0000.0001) %MON time_secondsf                =   8.6900000000000E+04
(PID.TID 0000.0001) %MON dynstat_eta_max              =   5.7978801758581E+00
(PID.TID 0000.0001) %MON dynstat_eta_min              =  -1.4174142800306E+01
(PID.TID 0000.0001) %MON dynstat_eta_mean             =  -2.5257297608455E+00
(PID.TID 0000.0001) %MON dynstat_eta_sd               =   4.9415593767707E+00
(PID.TID 0000.0001) %MON dynstat_eta_del2             =   1.9058302741904E-01
(PID.TID 0000.0001) %MON dynstat_uvel_max             =   3.8152916501044E-03
(PID.TID 0000.0001) %MON dynstat_uvel_min             =  -1.4933350337603E-02
(PID.TID 0000.0001) %MON dynstat_uvel_mean            =  -1.3243286301619E-09
(PID.TID 0000.0001) %MON dynstat_uvel_sd              =   3.9428396388935E-04
(PID.TID 0000.0001) %MON dynstat_uvel_del2            =   6.4137900525133E-07
(PID.TID 0000.0001) %MON dynstat_vvel_max             =   1.1507509705692E-02
(PID.TID 0000.0001) %MON dynstat_vvel_min             =  -4.1599626498519E-03
(PID.TID 0000.0001) %MON dynstat_vvel_mean            =   1.6159613234212E-09
(PID.TID 0000.0001) %MON dynstat_vvel_sd              =   2.2182105311358E-04
(PID.TID 0000.0001) %MON dynstat_vvel_del2            =   5.8626456818364E-07
(PID.TID 0000.0001) %MON dynstat_wvel_max             =   5.9780381178262E-04
(PID.TID 0000.0001) %MON dynstat_wvel_min             =  -6.1000876585933E-04
(PID.TID 0000.0001) %MON dynstat_wvel_mean            =   2.2213831677324E-10
(PID.TID 0000.0001) %MON dynstat_wvel_sd              =   1.1789378898878E-05
(PID.TID 0000.0001) %MON dynstat_wvel_del2            =   4.8729956603474E-08
(PID.TID 0000.0001) %MON dynstat_theta_max            =   1.2000000000000E+00
(PID.TID 0000.0001) %MON dynstat_theta_min            =  -1.0000000000000E+00
(PID.TID 0000.0001) %MON dynstat_theta_mean           =   5.6528606082974E-01
(PID.TID 0000.0001) %MON dynstat_theta_sd             =   8.4900556721492E-01
(PID.TID 0000.0001) %MON dynstat_theta_del2           =   1.6433144834322E-06
(PID.TID 0000.0001) %MON dynstat_salt_max             =   3.4700000000000E+01
(PID.TID 0000.0001) %MON dynstat_salt_min             =   3.4000000000000E+01
(PID.TID 0000.0001) %MON dynstat_salt_mean            =   3.4498028258828E+01
(PID.TID 0000.0001) %MON dynstat_salt_sd              =   2.7013738473314E-01
(PID.TID 0000.0001) %MON dynstat_salt_del2            =   6.4733404925545E-07
(PID.TID 0000.0001) %MON advcfl_uvel_max              =   1.4933350337603E-03
(PID.TID 0000.0001) %MON advcfl_vvel_max              =   1.1507509705692E-03
(PID.TID 0000.0001) %MON advcfl_wvel_max              =   3.0500438292966E-03
(PID.TID 0000.0001) %MON advcfl_W_hf_max              =   3.0500438292966E-03
(PID.TID 0000.0001) %MON pe_b_mean                    =  -6.8245143773941E-01
(PID.TID 0000.0001) %MON ke_max                       =   6.8330590726457E-05
(PID.TID 0000.0001) %MON ke_mean                      =   1.0087024978494E-07
(PID.TID 0000.0001) %MON ke_vol                       =   4.6182971436112E+12
(PID.TID 0000.0001) // =======================================================
(PID.TID 0000.0001) // End MONITOR dynamic field statistics
(PID.TID 0000.0001) // =======================================================
(PID.TID 0000.0001) // =======================================================
(PID.TID 0000.0001) // Begin OBCS MONITOR field statistics
(PID.TID 0000.0001) // =======================================================
(PID.TID 0000.0001) %MON obc_N_vVel_max               =  -1.8200857467852E-08
(PID.TID 0000.0001) %MON obc_N_vVel_min               =  -1.8200857467852E-08
(PID.TID 0000.0001) %MON obc_N_vVel_mean              =  -1.8200857467852E-08
(PID.TID 0000.0001) %MON obc_N_vVel_sd                =  -4.0429121392577E-30
(PID.TID 0000.0001) %MON obc_N_vVel_Int               =  -1.2012565928782E+00
(PID.TID 0000.0001) // =======================================================
(PID.TID 0000.0001) // End OBCS MONITOR field statistics
(PID.TID 0000.0001) // =======================================================
 cg2d: Sum(rhs),rhsMax =   3.01048753885537E+00  4.53046919383333E+02
(PID.TID 0000.0001)      cg2d_init_res =   2.00328716709616E-06
(PID.TID 0000.0001)      cg2d_iters(min,last) =      -1      73
(PID.TID 0000.0001)      cg2d_last_res =   8.30601750498572E-12
(PID.TID 0000.0001) // =======================================================
(PID.TID 0000.0001) // Begin MONITOR dynamic field statistics
(PID.TID 0000.0001) // =======================================================
(PID.TID 0000.0001) %MON time_tsnumber                =                   870
(PID.TID 0000.0001) %MON time_secondsf                =   8.7000000000000E+04
(PID.TID 0000.0001) %MON dynstat_eta_max              =   5.7978828892095E+00
(PID.TID 0000.0001) %MON dynstat_eta_min              =  -1.4174136144471E+01
(PID.TID 0000.0001) %MON dynstat_eta_mean             =  -2.5257261209636E+00
(PID.TID 0000.0001) %MON dynstat_eta_sd               =   4.9415582915644E+00
(PID.TID 0000.0001) %MON dynstat_eta_del2             =   1.9058303630017E-01
(PID.TID 0000.0001) %MON dynstat_uvel_max             =   3.8203737089688E-03
(PID.TID 0000.0001) %MON dynstat_uvel_min             =  -1.4972141013448E-02
(PID.TID 0000.0001) %MON dynstat_uvel_mean            =  -1.3243994604267E-09
(PID.TID 0000.0001) %MON dynstat_uvel_sd              =   3.9537337125159E-04
(PID.TID 0000.0001) %MON dynstat_uvel_del2            =   6.4287609131569E-07
(PID.TID 0000.0001) %MON dynstat_vvel_max             =   1.1529189270533E-02
(PID.TID 0000.0001) %MON dynstat_vvel_min             =  -4.1701777147560E-03
(PID.TID 0000.0001) %MON dynstat_vvel_mean            =   6.3145917946610E-09
(PID.TID 0000.0001) %MON dynstat_vvel_sd              =   2.2234756801819E-04
(PID.TID 0000.0001) %MON dynstat_vvel_del2            =   5.8751102672211E-07
(PID.TID 0000.0001) %MON dynstat_wvel_max             =   5.9952035266786E-04
(PID.TID 0000.0001) %MON dynstat_wvel_min             =  -6.1204339419041E-04
(PID.TID 0000.0001) %MON dynstat_wvel_mean            =   2.2159123379157E-10
(PID.TID 0000.0001) %MON dynstat_wvel_sd              =   1.1824363748470E-05
(PID.TID 0000.0001) %MON dynstat_wvel_del2            =   4.8920746689474E-08
(PID.TID 0000.0001) %MON dynstat_theta_max            =   1.2000000000000E+00
(PID.TID 0000.0001) %MON dynstat_theta_min            =  -1.0000000000000E+00
(PID.TID 0000.0001) %MON dynstat_theta_mean           =   5.6528565654375E-01
(PID.TID 0000.0001) %MON dynstat_theta_sd             =   8.4900540561954E-01
(PID.TID 0000.0001) %MON dynstat_theta_del2           =   1.6468068199289E-06
(PID.TID 0000.0001) %MON dynstat_salt_max             =   3.4700000000000E+01
(PID.TID 0000.0001) %MON dynstat_salt_min             =   3.4000000000000E+01
(PID.TID 0000.0001) %MON dynstat_salt_mean            =   3.4498028097765E+01
(PID.TID 0000.0001) %MON dynstat_salt_sd              =   2.7013732531428E-01
(PID.TID 0000.0001) %MON dynstat_salt_del2            =   6.4872956760371E-07
(PID.TID 0000.0001) %MON advcfl_uvel_max              =   1.4972141013448E-03
(PID.TID 0000.0001) %MON advcfl_vvel_max              =   1.1529189270533E-03
(PID.TID 0000.0001) %MON advcfl_wvel_max              =   3.0602169709521E-03
(PID.TID 0000.0001) %MON advcfl_W_hf_max              =   3.0602169709521E-03
(PID.TID 0000.0001) %MON pe_b_mean                    =  -6.8245038514542E-01
(PID.TID 0000.0001) %MON ke_max                       =   6.8684641503841E-05
(PID.TID 0000.0001) %MON ke_mean                      =   1.0140922043701E-07
(PID.TID 0000.0001) %MON ke_vol                       =   4.6182971652206E+12
(PID.TID 0000.0001) // =======================================================
(PID.TID 0000.0001) // End MONITOR dynamic field statistics
(PID.TID 0000.0001) // =======================================================
(PID.TID 0000.0001) // =======================================================
(PID.TID 0000.0001) // Begin OBCS MONITOR field statistics
(PID.TID 0000.0001) // =======================================================
(PID.TID 0000.0001) %MON obc_N_vVel_max               =  -1.3652857084403E-08
(PID.TID 0000.0001) %MON obc_N_vVel_min               =  -1.3652857084403E-08
(PID.TID 0000.0001) %MON obc_N_vVel_mean              =  -1.3652857084403E-08
(PID.TID 0000.0001) %MON obc_N_vVel_sd                =  -1.2572470676960E-29
(PID.TID 0000.0001) %MON obc_N_vVel_Int               =  -9.0108856757062E-01
(PID.TID 0000.0001) // =======================================================
(PID.TID 0000.0001) // End OBCS MONITOR field statistics
(PID.TID 0000.0001) // =======================================================
 cg2d: Sum(rhs),rhsMax =   3.01048323814138E+00  4.53046913373298E+02
(PID.TID 0000.0001)      cg2d_init_res =   2.00798637204926E-06
(PID.TID 0000.0001)      cg2d_iters(min,last) =      -1      73
(PID.TID 0000.0001)      cg2d_last_res =   8.33276136600184E-12
(PID.TID 0000.0001) // =======================================================
(PID.TID 0000.0001) // Begin MONITOR dynamic field statistics
(PID.TID 0000.0001) // =======================================================
(PID.TID 0000.0001) %MON time_tsnumber                =                   871
(PID.TID 0000.0001) %MON time_secondsf                =   8.7100000000000E+04
(PID.TID 0000.0001) %MON dynstat_eta_max              =   5.7978855941960E+00
(PID.TID 0000.0001) %MON dynstat_eta_min              =  -1.4174129474353E+01
(PID.TID 0000.0001) %MON dynstat_eta_mean             =  -2.5257224792630E+00
(PID.TID 0000.0001) %MON dynstat_eta_sd               =   4.9415572062814E+00
(PID.TID 0000.0001) %MON dynstat_eta_del2             =   1.9058304521123E-01
(PID.TID 0000.0001) %MON dynstat_uvel_max             =   3.8254527430261E-03
(PID.TID 0000.0001) %MON dynstat_uvel_min             =  -1.5011001729021E-02
(PID.TID 0000.0001) %MON dynstat_uvel_mean            =  -1.3244822595825E-09
(PID.TID 0000.0001) %MON dynstat_uvel_sd              =   3.9646591184483E-04
(PID.TID 0000.0001) %MON dynstat_uvel_del2            =   6.4437733879237E-07
(PID.TID 0000.0001) %MON dynstat_vvel_max             =   1.1550889866219E-02
(PID.TID 0000.0001) %MON dynstat_vvel_min             =  -4.1804113723787E-03
(PID.TID 0000.0001) %MON dynstat_vvel_mean            =   1.1124086283292E-08
(PID.TID 0000.0001) %MON dynstat_vvel_sd              =   2.2287380342964E-04
(PID.TID 0000.0001) %MON dynstat_vvel_del2            =   5.8874489600217E-07
(PID.TID 0000.0001) %MON dynstat_wvel_max             =   6.0124042095438E-04
(PID.TID 0000.0001) %MON dynstat_wvel_min             =  -6.1408401918485E-04
(PID.TID 0000.0001) %MON dynstat_wvel_mean            =   2.2085383926095E-10
(PID.TID 0000.0001) %MON dynstat_wvel_sd              =   1.1852445902191E-05
(PID.TID 0000.0001) %MON dynstat_wvel_del2            =   4.9043468137060E-08
(PID.TID 0000.0001) %MON dynstat_theta_max            =   1.2000000000000E+00
(PID.TID 0000.0001) %MON dynstat_theta_min            =  -1.0000000000000E+00
(PID.TID 0000.0001) %MON dynstat_theta_mean           =   5.6528525145655E-01
(PID.TID 0000.0001) %MON dynstat_theta_sd             =   8.4900524364167E-01
(PID.TID 0000.0001) %MON dynstat_theta_del2           =   1.6503265903447E-06
(PID.TID 0000.0001) %MON dynstat_salt_max             =   3.4700000000000E+01
(PID.TID 0000.0001) %MON dynstat_salt_min             =   3.4000000000000E+01
(PID.TID 0000.0001) %MON dynstat_salt_mean            =   3.4498027936383E+01
(PID.TID 0000.0001) %MON dynstat_salt_sd              =   2.7013726574414E-01
(PID.TID 0000.0001) %MON dynstat_salt_del2            =   6.5013315741966E-07
(PID.TID 0000.0001) %MON advcfl_uvel_max              =   1.5011001729021E-03
(PID.TID 0000.0001) %MON advcfl_vvel_max              =   1.1550889866219E-03
(PID.TID 0000.0001) %MON advcfl_wvel_max              =   3.0704200959243E-03
(PID.TID 0000.0001) %MON advcfl_W_hf_max              =   3.0704200959243E-03
(PID.TID 0000.0001) %MON pe_b_mean                    =  -6.8244933144456E-01
(PID.TID 0000.0001) %MON ke_max                       =   6.9040238222405E-05
(PID.TID 0000.0001) %MON ke_mean                      =   1.0195078939411E-07
(PID.TID 0000.0001) %MON ke_vol                       =   4.6182971868415E+12
(PID.TID 0000.0001) // =======================================================
(PID.TID 0000.0001) // End MONITOR dynamic field statistics
(PID.TID 0000.0001) // =======================================================
(PID.TID 0000.0001) // =======================================================
(PID.TID 0000.0001) // Begin OBCS MONITOR field statistics
(PID.TID 0000.0001) // =======================================================
(PID.TID 0000.0001) %MON obc_N_vVel_max               =  -8.9779671593830E-09
(PID.TID 0000.0001) %MON obc_N_vVel_min               =  -8.9779671593830E-09
(PID.TID 0000.0001) %MON obc_N_vVel_mean              =  -8.9779671593830E-09
(PID.TID 0000.0001) %MON obc_N_vVel_sd                =   4.9650683064945E-16
(PID.TID 0000.0001) %MON obc_N_vVel_Int               =  -5.9254583251928E-01
(PID.TID 0000.0001) // =======================================================
(PID.TID 0000.0001) // End OBCS MONITOR field statistics
(PID.TID 0000.0001) // =======================================================
 cg2d: Sum(rhs),rhsMax =   3.01047893525195E+00  4.53046907383751E+02
(PID.TID 0000.0001)      cg2d_init_res =   2.01196392104368E-06
(PID.TID 0000.0001)      cg2d_iters(min,last) =      -1      73
(PID.TID 0000.0001)      cg2d_last_res =   8.35930234056875E-12
(PID.TID 0000.0001) // =======================================================
(PID.TID 0000.0001) // Begin MONITOR dynamic field statistics
(PID.TID 0000.0001) // =======================================================
(PID.TID 0000.0001) %MON time_tsnumber                =                   872
(PID.TID 0000.0001) %MON time_secondsf                =   8.7200000000000E+04
(PID.TID 0000.0001) %MON dynstat_eta_max              =   5.7978882904257E+00
(PID.TID 0000.0001) %MON dynstat_eta_min              =  -1.4174122789820E+01
(PID.TID 0000.0001) %MON dynstat_eta_mean             =  -2.5257188358515E+00
(PID.TID 0000.0001) %MON dynstat_eta_sd               =   4.9415561209417E+00
(PID.TID 0000.0001) %MON dynstat_eta_del2             =   1.9058305415217E-01
(PID.TID 0000.0001) %MON dynstat_uvel_max             =   3.8305287121627E-03
(PID.TID 0000.0001) %MON dynstat_uvel_min             =  -1.5049932458449E-02
(PID.TID 0000.0001) %MON dynstat_uvel_mean            =  -1.3247554251473E-09
(PID.TID 0000.0001) %MON dynstat_uvel_sd              =   3.9756158742394E-04
(PID.TID 0000.0001) %MON dynstat_uvel_del2            =   6.4588276102390E-07
(PID.TID 0000.0001) %MON dynstat_vvel_max             =   1.1572611410536E-02
(PID.TID 0000.0001) %MON dynstat_vvel_min             =  -4.1906636698714E-03
(PID.TID 0000.0001) %MON dynstat_vvel_mean            =   1.6034873008918E-08
(PID.TID 0000.0001) %MON dynstat_vvel_sd              =   2.2339959275901E-04
(PID.TID 0000.0001) %MON dynstat_vvel_del2            =   5.8996561321356E-07
(PID.TID 0000.0001) %MON dynstat_wvel_max             =   6.0296402055801E-04
(PID.TID 0000.0001) %MON dynstat_wvel_min             =  -6.1613065354982E-04
(PID.TID 0000.0001) %MON dynstat_wvel_mean            =   2.1989959080022E-10
(PID.TID 0000.0001) %MON dynstat_wvel_sd              =   1.1873262420451E-05
(PID.TID 0000.0001) %MON dynstat_wvel_del2            =   4.9094785533949E-08
(PID.TID 0000.0001) %MON dynstat_theta_max            =   1.2000000000000E+00
(PID.TID 0000.0001) %MON dynstat_theta_min            =  -1.0000000000000E+00
(PID.TID 0000.0001) %MON dynstat_theta_mean           =   5.6528484556327E-01
(PID.TID 0000.0001) %MON dynstat_theta_sd             =   8.4900508128604E-01
(PID.TID 0000.0001) %MON dynstat_theta_del2           =   1.6538734401469E-06
(PID.TID 0000.0001) %MON dynstat_salt_max             =   3.4700000000000E+01
(PID.TID 0000.0001) %MON dynstat_salt_min             =   3.4000000000000E+01
(PID.TID 0000.0001) %MON dynstat_salt_mean            =   3.4498027774681E+01
(PID.TID 0000.0001) %MON dynstat_salt_sd              =   2.7013720602385E-01
(PID.TID 0000.0001) %MON dynstat_salt_del2            =   6.5154472408022E-07
(PID.TID 0000.0001) %MON advcfl_uvel_max              =   1.5049932458449E-03
(PID.TID 0000.0001) %MON advcfl_vvel_max              =   1.1572611410536E-03
(PID.TID 0000.0001) %MON advcfl_wvel_max              =   3.0806532677491E-03
(PID.TID 0000.0001) %MON advcfl_W_hf_max              =   3.0806532677491E-03
(PID.TID 0000.0001) %MON pe_b_mean                    =  -6.8244827665080E-01
(PID.TID 0000.0001) %MON ke_max                       =   6.9397385394582E-05
(PID.TID 0000.0001) %MON ke_mean                      =   1.0249492976272E-07
(PID.TID 0000.0001) %MON ke_vol                       =   4.6182972084732E+12
(PID.TID 0000.0001) // =======================================================
(PID.TID 0000.0001) // End MONITOR dynamic field statistics
(PID.TID 0000.0001) // =======================================================
(PID.TID 0000.0001) // =======================================================
(PID.TID 0000.0001) // Begin OBCS MONITOR field statistics
(PID.TID 0000.0001) // =======================================================
(PID.TID 0000.0001) %MON obc_N_vVel_max               =  -4.1838689350838E-09
(PID.TID 0000.0001) %MON obc_N_vVel_min               =  -4.1838689350839E-09
(PID.TID 0000.0001) %MON obc_N_vVel_mean              =  -4.1838689350838E-09
(PID.TID 0000.0001) %MON obc_N_vVel_sd                =   5.0876810486276E-16
(PID.TID 0000.0001) %MON obc_N_vVel_Int               =  -2.7613534971553E-01
(PID.TID 0000.0001) // =======================================================
(PID.TID 0000.0001) // End OBCS MONITOR field statistics
(PID.TID 0000.0001) // =======================================================
 cg2d: Sum(rhs),rhsMax =   3.01047463029543E+00  4.53046901415117E+02
(PID.TID 0000.0001)      cg2d_init_res =   2.01521901695027E-06
(PID.TID 0000.0001)      cg2d_iters(min,last) =      -1      73
(PID.TID 0000.0001)      cg2d_last_res =   8.38553011327653E-12
(PID.TID 0000.0001) // =======================================================
(PID.TID 0000.0001) // Begin MONITOR dynamic field statistics
(PID.TID 0000.0001) // =======================================================
(PID.TID 0000.0001) %MON time_tsnumber                =                   873
(PID.TID 0000.0001) %MON time_secondsf                =   8.7300000000000E+04
(PID.TID 0000.0001) %MON dynstat_eta_max              =   5.7978909776662E+00
(PID.TID 0000.0001) %MON dynstat_eta_min              =  -1.4174116090970E+01
(PID.TID 0000.0001) %MON dynstat_eta_mean             =  -2.5257151908225E+00
(PID.TID 0000.0001) %MON dynstat_eta_sd               =   4.9415550355612E+00
(PID.TID 0000.0001) %MON dynstat_eta_del2             =   1.9058306312302E-01
(PID.TID 0000.0001) %MON dynstat_uvel_max             =   3.8356015747176E-03
(PID.TID 0000.0001) %MON dynstat_uvel_min             =  -1.5088933173013E-02
(PID.TID 0000.0001) %MON dynstat_uvel_mean            =  -1.3252785879530E-09
(PID.TID 0000.0001) %MON dynstat_uvel_sd              =   3.9866039962043E-04
(PID.TID 0000.0001) %MON dynstat_uvel_del2            =   6.4739237011955E-07
(PID.TID 0000.0001) %MON dynstat_vvel_max             =   1.1594353821522E-02
(PID.TID 0000.0001) %MON dynstat_vvel_min             =  -4.2009346538068E-03
(PID.TID 0000.0001) %MON dynstat_vvel_mean            =   2.1034638951560E-08
(PID.TID 0000.0001) %MON dynstat_vvel_sd              =   2.2392487711050E-04
(PID.TID 0000.0001) %MON dynstat_vvel_del2            =   5.9117422430077E-07
(PID.TID 0000.0001) %MON dynstat_wvel_max             =   6.0469115527275E-04
(PID.TID 0000.0001) %MON dynstat_wvel_min             =  -6.1818331019124E-04
(PID.TID 0000.0001) %MON dynstat_wvel_mean            =   2.1873548491080E-10
(PID.TID 0000.0001) %MON dynstat_wvel_sd              =   1.1887169483099E-05
(PID.TID 0000.0001) %MON dynstat_wvel_del2            =   4.9078139240334E-08
(PID.TID 0000.0001) %MON dynstat_theta_max            =   1.2000000000000E+00
(PID.TID 0000.0001) %MON dynstat_theta_min            =  -1.0000000000000E+00
(PID.TID 0000.0001) %MON dynstat_theta_mean           =   5.6528443886010E-01
(PID.TID 0000.0001) %MON dynstat_theta_sd             =   8.4900491855176E-01
(PID.TID 0000.0001) %MON dynstat_theta_del2           =   1.6574452396216E-06
(PID.TID 0000.0001) %MON dynstat_salt_max             =   3.4700000000000E+01
(PID.TID 0000.0001) %MON dynstat_salt_min             =   3.4000000000000E+01
(PID.TID 0000.0001) %MON dynstat_salt_mean            =   3.4498027612656E+01
(PID.TID 0000.0001) %MON dynstat_salt_sd              =   2.7013714615336E-01
(PID.TID 0000.0001) %MON dynstat_salt_del2            =   6.5296371798061E-07
(PID.TID 0000.0001) %MON advcfl_uvel_max              =   1.5088933173013E-03
(PID.TID 0000.0001) %MON advcfl_vvel_max              =   1.1594353821522E-03
(PID.TID 0000.0001) %MON advcfl_wvel_max              =   3.0909165509562E-03
(PID.TID 0000.0001) %MON advcfl_W_hf_max              =   3.0909165509562E-03
(PID.TID 0000.0001) %MON pe_b_mean                    =  -6.8244722077563E-01
(PID.TID 0000.0001) %MON ke_max                       =   6.9756087519416E-05
(PID.TID 0000.0001) %MON ke_mean                      =   1.0304163840204E-07
(PID.TID 0000.0001) %MON ke_vol                       =   4.6182972301150E+12
(PID.TID 0000.0001) // =======================================================
(PID.TID 0000.0001) // End MONITOR dynamic field statistics
(PID.TID 0000.0001) // =======================================================
(PID.TID 0000.0001) // =======================================================
(PID.TID 0000.0001) // Begin OBCS MONITOR field statistics
(PID.TID 0000.0001) // =======================================================
(PID.TID 0000.0001) %MON obc_N_vVel_max               =   7.1380159489198E-10
(PID.TID 0000.0001) %MON obc_N_vVel_min               =   7.1380159489197E-10
(PID.TID 0000.0001) %MON obc_N_vVel_mean              =   7.1380159489197E-10
(PID.TID 0000.0001) %MON obc_N_vVel_sd                =   1.5823112613210E-16
(PID.TID 0000.0001) %MON obc_N_vVel_Int               =   4.7110905262870E-02
(PID.TID 0000.0001) // =======================================================
(PID.TID 0000.0001) // End OBCS MONITOR field statistics
(PID.TID 0000.0001) // =======================================================
 cg2d: Sum(rhs),rhsMax =   3.01047032335834E+00  4.53046895467631E+02
(PID.TID 0000.0001)      cg2d_init_res =   2.01781824042105E-06
(PID.TID 0000.0001)      cg2d_iters(min,last) =      -1      73
(PID.TID 0000.0001)      cg2d_last_res =   8.41136944638400E-12
(PID.TID 0000.0001) // =======================================================
(PID.TID 0000.0001) // Begin MONITOR dynamic field statistics
(PID.TID 0000.0001) // =======================================================
(PID.TID 0000.0001) %MON time_tsnumber                =                   874
(PID.TID 0000.0001) %MON time_secondsf                =   8.7400000000000E+04
(PID.TID 0000.0001) %MON dynstat_eta_max              =   5.7978936557849E+00
(PID.TID 0000.0001) %MON dynstat_eta_min              =  -1.4174109378011E+01
(PID.TID 0000.0001) %MON dynstat_eta_mean             =  -2.5257115442499E+00
(PID.TID 0000.0001) %MON dynstat_eta_sd               =   4.9415539501469E+00
(PID.TID 0000.0001) %MON dynstat_eta_del2             =   1.9058307212378E-01
(PID.TID 0000.0001) %MON dynstat_uvel_max             =   3.8406712872359E-03
(PID.TID 0000.0001) %MON dynstat_uvel_min             =  -1.5128003841411E-02
(PID.TID 0000.0001) %MON dynstat_uvel_mean            =  -1.3260063989821E-09
(PID.TID 0000.0001) %MON dynstat_uvel_sd              =   3.9976234989475E-04
(PID.TID 0000.0001) %MON dynstat_uvel_del2            =   6.4890617705742E-07
(PID.TID 0000.0001) %MON dynstat_vvel_max             =   1.1616117019122E-02
(PID.TID 0000.0001) %MON dynstat_vvel_min             =  -4.2112243689107E-03
(PID.TID 0000.0001) %MON dynstat_vvel_mean            =   2.6108276297091E-08
(PID.TID 0000.0001) %MON dynstat_vvel_sd              =   2.2444969814219E-04
(PID.TID 0000.0001) %MON dynstat_vvel_del2            =   5.9237325119997E-07
(PID.TID 0000.0001) %MON dynstat_wvel_max             =   6.0642182876494E-04
(PID.TID 0000.0001) %MON dynstat_wvel_min             =  -6.2024200231828E-04
(PID.TID 0000.0001) %MON dynstat_wvel_mean            =   2.1739922057898E-10
(PID.TID 0000.0001) %MON dynstat_wvel_sd              =   1.1895188680726E-05
(PID.TID 0000.0001) %MON dynstat_wvel_del2            =   4.9003325958461E-08
(PID.TID 0000.0001) %MON dynstat_theta_max            =   1.2000000000000E+00
(PID.TID 0000.0001) %MON dynstat_theta_min            =  -1.0000000000000E+00
(PID.TID 0000.0001) %MON dynstat_theta_mean           =   5.6528403134441E-01
(PID.TID 0000.0001) %MON dynstat_theta_sd             =   8.4900475543848E-01
(PID.TID 0000.0001) %MON dynstat_theta_del2           =   1.6610383101880E-06
(PID.TID 0000.0001) %MON dynstat_salt_max             =   3.4700000000000E+01
(PID.TID 0000.0001) %MON dynstat_salt_min             =   3.4000000000000E+01
(PID.TID 0000.0001) %MON dynstat_salt_mean            =   3.4498027450308E+01
(PID.TID 0000.0001) %MON dynstat_salt_sd              =   2.7013708613233E-01
(PID.TID 0000.0001) %MON dynstat_salt_del2            =   6.5438919147957E-07
(PID.TID 0000.0001) %MON advcfl_uvel_max              =   1.5128003841411E-03
(PID.TID 0000.0001) %MON advcfl_vvel_max              =   1.1616117019122E-03
(PID.TID 0000.0001) %MON advcfl_wvel_max              =   3.1012100115914E-03
(PID.TID 0000.0001) %MON advcfl_W_hf_max              =   3.1012100115914E-03
(PID.TID 0000.0001) %MON pe_b_mean                    =  -6.8244616382774E-01
(PID.TID 0000.0001) %MON ke_max                       =   7.0116349089356E-05
(PID.TID 0000.0001) %MON ke_mean                      =   1.0359093458519E-07
(PID.TID 0000.0001) %MON ke_vol                       =   4.6182972517665E+12
(PID.TID 0000.0001) // =======================================================
(PID.TID 0000.0001) // End MONITOR dynamic field statistics
(PID.TID 0000.0001) // =======================================================
(PID.TID 0000.0001) // =======================================================
(PID.TID 0000.0001) // Begin OBCS MONITOR field statistics
(PID.TID 0000.0001) // =======================================================
(PID.TID 0000.0001) %MON obc_N_vVel_max               =   5.6944516496696E-09
(PID.TID 0000.0001) %MON obc_N_vVel_min               =   5.6944516496696E-09
(PID.TID 0000.0001) %MON obc_N_vVel_mean              =   5.6944516496696E-09
(PID.TID 0000.0001) %MON obc_N_vVel_sd                =  -1.4791141972894E-31
(PID.TID 0000.0001) %MON obc_N_vVel_Int               =   3.7583380887819E-01
(PID.TID 0000.0001) // =======================================================
(PID.TID 0000.0001) // End OBCS MONITOR field statistics
(PID.TID 0000.0001) // =======================================================
 cg2d: Sum(rhs),rhsMax =   3.01046601449578E+00  4.53046889541370E+02
(PID.TID 0000.0001)      cg2d_init_res =   2.01988298441822E-06
(PID.TID 0000.0001)      cg2d_iters(min,last) =      -1      73
(PID.TID 0000.0001)      cg2d_last_res =   8.43672654248253E-12
(PID.TID 0000.0001) // =======================================================
(PID.TID 0000.0001) // Begin MONITOR dynamic field statistics
(PID.TID 0000.0001) // =======================================================
(PID.TID 0000.0001) %MON time_tsnumber                =                   875
(PID.TID 0000.0001) %MON time_secondsf                =   8.7500000000000E+04
(PID.TID 0000.0001) %MON dynstat_eta_max              =   5.7978963246539E+00
(PID.TID 0000.0001) %MON dynstat_eta_min              =  -1.4174102651138E+01
(PID.TID 0000.0001) %MON dynstat_eta_mean             =  -2.5257078961802E+00
(PID.TID 0000.0001) %MON dynstat_eta_sd               =   4.9415528646996E+00
(PID.TID 0000.0001) %MON dynstat_eta_del2             =   1.9058308115448E-01
(PID.TID 0000.0001) %MON dynstat_uvel_max             =   3.8457378047099E-03
(PID.TID 0000.0001) %MON dynstat_uvel_min             =  -1.5167144429935E-02
(PID.TID 0000.0001) %MON dynstat_uvel_mean            =  -1.3267923922559E-09
(PID.TID 0000.0001) %MON dynstat_uvel_sd              =   4.0086743950054E-04
(PID.TID 0000.0001) %MON dynstat_uvel_del2            =   6.5042419188721E-07
(PID.TID 0000.0001) %MON dynstat_vvel_max             =   1.1637900925297E-02
(PID.TID 0000.0001) %MON dynstat_vvel_min             =  -4.2215328581650E-03
(PID.TID 0000.0001) %MON dynstat_vvel_mean            =   3.1238797794073E-08
(PID.TID 0000.0001) %MON dynstat_vvel_sd              =   2.2497418103557E-04
(PID.TID 0000.0001) %MON dynstat_vvel_del2            =   5.9356641807741E-07
(PID.TID 0000.0001) %MON dynstat_wvel_max             =   6.0815604455883E-04
(PID.TID 0000.0001) %MON dynstat_wvel_min             =  -6.2230674345367E-04
(PID.TID 0000.0001) %MON dynstat_wvel_mean            =   2.1593868751962E-10
(PID.TID 0000.0001) %MON dynstat_wvel_sd              =   1.1898893238472E-05
(PID.TID 0000.0001) %MON dynstat_wvel_del2            =   4.8885552598807E-08
(PID.TID 0000.0001) %MON dynstat_theta_max            =   1.2000000000000E+00
(PID.TID 0000.0001) %MON dynstat_theta_min            =  -1.0000000000000E+00
(PID.TID 0000.0001) %MON dynstat_theta_mean           =   5.6528362301400E-01
(PID.TID 0000.0001) %MON dynstat_theta_sd             =   8.4900459194541E-01
(PID.TID 0000.0001) %MON dynstat_theta_del2           =   1.6646477958008E-06
(PID.TID 0000.0001) %MON dynstat_salt_max             =   3.4700000000000E+01
(PID.TID 0000.0001) %MON dynstat_salt_min             =   3.4000000000000E+01
(PID.TID 0000.0001) %MON dynstat_salt_mean            =   3.4498027287637E+01
(PID.TID 0000.0001) %MON dynstat_salt_sd              =   2.7013702596058E-01
(PID.TID 0000.0001) %MON dynstat_salt_del2            =   6.5581989499820E-07
(PID.TID 0000.0001) %MON advcfl_uvel_max              =   1.5167144429935E-03
(PID.TID 0000.0001) %MON advcfl_vvel_max              =   1.1637900925297E-03
(PID.TID 0000.0001) %MON advcfl_wvel_max              =   3.1115337172683E-03
(PID.TID 0000.0001) %MON advcfl_W_hf_max              =   3.1115337172683E-03
(PID.TID 0000.0001) %MON pe_b_mean                    =  -6.8244510581156E-01
(PID.TID 0000.0001) %MON ke_max                       =   7.0478174590146E-05
(PID.TID 0000.0001) %MON ke_mean                      =   1.0414285641703E-07
(PID.TID 0000.0001) %MON ke_vol                       =   4.6182972734272E+12
(PID.TID 0000.0001) // =======================================================
(PID.TID 0000.0001) // End MONITOR dynamic field statistics
(PID.TID 0000.0001) // =======================================================
(PID.TID 0000.0001) // =======================================================
(PID.TID 0000.0001) // Begin OBCS MONITOR field statistics
(PID.TID 0000.0001) // =======================================================
(PID.TID 0000.0001) %MON obc_N_vVel_max               =   1.0736469933534E-08
(PID.TID 0000.0001) %MON obc_N_vVel_min               =   1.0736469933534E-08
(PID.TID 0000.0001) %MON obc_N_vVel_mean              =   1.0736469933534E-08
(PID.TID 0000.0001) %MON obc_N_vVel_sd                =   2.5846983946082E-15
(PID.TID 0000.0001) %MON obc_N_vVel_Int               =   7.0860701561324E-01
(PID.TID 0000.0001) // =======================================================
(PID.TID 0000.0001) // End OBCS MONITOR field statistics
(PID.TID 0000.0001) // =======================================================
 cg2d: Sum(rhs),rhsMax =   3.01046170373954E+00  4.53046883636201E+02
(PID.TID 0000.0001)      cg2d_init_res =   2.02158305431952E-06
(PID.TID 0000.0001)      cg2d_iters(min,last) =      -1      73
(PID.TID 0000.0001)      cg2d_last_res =   8.46150907501460E-12
(PID.TID 0000.0001) // =======================================================
(PID.TID 0000.0001) // Begin MONITOR dynamic field statistics
(PID.TID 0000.0001) // =======================================================
(PID.TID 0000.0001) %MON time_tsnumber                =                   876
(PID.TID 0000.0001) %MON time_secondsf                =   8.7600000000000E+04
(PID.TID 0000.0001) %MON dynstat_eta_max              =   5.7978989841466E+00
(PID.TID 0000.0001) %MON dynstat_eta_min              =  -1.4174095910471E+01
(PID.TID 0000.0001) %MON dynstat_eta_mean             =  -2.5257042466395E+00
(PID.TID 0000.0001) %MON dynstat_eta_sd               =   4.9415517792099E+00
(PID.TID 0000.0001) %MON dynstat_eta_del2             =   1.9058309021501E-01
(PID.TID 0000.0001) %MON dynstat_uvel_max             =   3.8508010814766E-03
(PID.TID 0000.0001) %MON dynstat_uvel_min             =  -1.5206354903411E-02
(PID.TID 0000.0001) %MON dynstat_uvel_mean            =  -1.3274058432187E-09
(PID.TID 0000.0001) %MON dynstat_uvel_sd              =   4.0197566945787E-04
(PID.TID 0000.0001) %MON dynstat_uvel_del2            =   6.5194642401969E-07
(PID.TID 0000.0001) %MON dynstat_vvel_max             =   1.1659705462769E-02
(PID.TID 0000.0001) %MON dynstat_vvel_min             =  -4.2318601637810E-03
(PID.TID 0000.0001) %MON dynstat_vvel_mean            =   3.6408575812583E-08
(PID.TID 0000.0001) %MON dynstat_vvel_sd              =   2.2549850958656E-04
(PID.TID 0000.0001) %MON dynstat_vvel_del2            =   5.9475826604925E-07
(PID.TID 0000.0001) %MON dynstat_wvel_max             =   6.0989380611645E-04
(PID.TID 0000.0001) %MON dynstat_wvel_min             =  -6.2437754724554E-04
(PID.TID 0000.0001) %MON dynstat_wvel_mean            =   2.1439315486282E-10
(PID.TID 0000.0001) %MON dynstat_wvel_sd              =   1.1900244231943E-05
(PID.TID 0000.0001) %MON dynstat_wvel_del2            =   4.8744015958472E-08
(PID.TID 0000.0001) %MON dynstat_theta_max            =   1.2000000000000E+00
(PID.TID 0000.0001) %MON dynstat_theta_min            =  -1.0000000000000E+00
(PID.TID 0000.0001) %MON dynstat_theta_mean           =   5.6528321386764E-01
(PID.TID 0000.0001) %MON dynstat_theta_sd             =   8.4900442807250E-01
(PID.TID 0000.0001) %MON dynstat_theta_del2           =   1.6682681167595E-06
(PID.TID 0000.0001) %MON dynstat_salt_max             =   3.4700000000000E+01
(PID.TID 0000.0001) %MON dynstat_salt_min             =   3.4000000000000E+01
(PID.TID 0000.0001) %MON dynstat_salt_mean            =   3.4498027124640E+01
(PID.TID 0000.0001) %MON dynstat_salt_sd              =   2.7013696563792E-01
(PID.TID 0000.0001) %MON dynstat_salt_del2            =   6.5725439329228E-07
(PID.TID 0000.0001) %MON advcfl_uvel_max              =   1.5206354903411E-03
(PID.TID 0000.0001) %MON advcfl_vvel_max              =   1.1659705462769E-03
(PID.TID 0000.0001) %MON advcfl_wvel_max              =   3.1218877362277E-03
(PID.TID 0000.0001) %MON advcfl_W_hf_max              =   3.1218877362277E-03
(PID.TID 0000.0001) %MON pe_b_mean                    =  -6.8244404672813E-01
(PID.TID 0000.0001) %MON ke_max                       =   7.0841568503626E-05
(PID.TID 0000.0001) %MON ke_mean                      =   1.0469745542451E-07
(PID.TID 0000.0001) %MON ke_vol                       =   4.6182972950967E+12
(PID.TID 0000.0001) // =======================================================
(PID.TID 0000.0001) // End MONITOR dynamic field statistics
(PID.TID 0000.0001) // =======================================================
(PID.TID 0000.0001) // =======================================================
(PID.TID 0000.0001) // Begin OBCS MONITOR field statistics
(PID.TID 0000.0001) // =======================================================
(PID.TID 0000.0001) %MON obc_N_vVel_max               =   1.5819695032220E-08
(PID.TID 0000.0001) %MON obc_N_vVel_min               =   1.5819695032220E-08
(PID.TID 0000.0001) %MON obc_N_vVel_mean              =   1.5819695032220E-08
(PID.TID 0000.0001) %MON obc_N_vVel_sd                =  -3.2195385694333E-29
(PID.TID 0000.0001) %MON obc_N_vVel_Int               =   1.0440998721265E+00
(PID.TID 0000.0001) // =======================================================
(PID.TID 0000.0001) // End OBCS MONITOR field statistics
(PID.TID 0000.0001) // =======================================================
 cg2d: Sum(rhs),rhsMax =   3.01045739110002E+00  4.53046877751856E+02
(PID.TID 0000.0001)      cg2d_init_res =   2.02313880108997E-06
(PID.TID 0000.0001)      cg2d_iters(min,last) =      -1      73
(PID.TID 0000.0001)      cg2d_last_res =   8.48559803712864E-12
(PID.TID 0000.0001) // =======================================================
(PID.TID 0000.0001) // Begin MONITOR dynamic field statistics
(PID.TID 0000.0001) // =======================================================
(PID.TID 0000.0001) %MON time_tsnumber                =                   877
(PID.TID 0000.0001) %MON time_secondsf                =   8.7700000000000E+04
(PID.TID 0000.0001) %MON dynstat_eta_max              =   5.7979016341157E+00
(PID.TID 0000.0001) %MON dynstat_eta_min              =  -1.4174089156032E+01
(PID.TID 0000.0001) %MON dynstat_eta_mean             =  -2.5257005956349E+00
(PID.TID 0000.0001) %MON dynstat_eta_sd               =   4.9415506936656E+00
(PID.TID 0000.0001) %MON dynstat_eta_del2             =   1.9058309930537E-01
(PID.TID 0000.0001) %MON dynstat_uvel_max             =   3.8558610719281E-03
(PID.TID 0000.0001) %MON dynstat_uvel_min             =  -1.5245635225864E-02
(PID.TID 0000.0001) %MON dynstat_uvel_mean            =  -1.3275540495556E-09
(PID.TID 0000.0001) %MON dynstat_uvel_sd              =   4.0308704053528E-04
(PID.TID 0000.0001) %MON dynstat_uvel_del2            =   6.5347288254966E-07
(PID.TID 0000.0001) %MON dynstat_vvel_max             =   1.1681530553305E-02
(PID.TID 0000.0001) %MON dynstat_vvel_min             =  -4.2422063282919E-03
(PID.TID 0000.0001) %MON dynstat_vvel_mean            =   4.1600203069685E-08
(PID.TID 0000.0001) %MON dynstat_vvel_sd              =   2.2602289614364E-04
(PID.TID 0000.0001) %MON dynstat_vvel_del2            =   5.9595369609435E-07
(PID.TID 0000.0001) %MON dynstat_wvel_max             =   6.1163511688099E-04
(PID.TID 0000.0001) %MON dynstat_wvel_min             =  -6.2645442740323E-04
(PID.TID 0000.0001) %MON dynstat_wvel_mean            =   2.1278517431665E-10
(PID.TID 0000.0001) %MON dynstat_wvel_sd              =   1.1901391068015E-05
(PID.TID 0000.0001) %MON dynstat_wvel_del2            =   4.8600093363501E-08
(PID.TID 0000.0001) %MON dynstat_theta_max            =   1.2000000000000E+00
(PID.TID 0000.0001) %MON dynstat_theta_min            =  -1.0000000000000E+00
(PID.TID 0000.0001) %MON dynstat_theta_mean           =   5.6528280390498E-01
(PID.TID 0000.0001) %MON dynstat_theta_sd             =   8.4900426381921E-01
(PID.TID 0000.0001) %MON dynstat_theta_del2           =   1.6718935282583E-06
(PID.TID 0000.0001) %MON dynstat_salt_max             =   3.4700000000000E+01
(PID.TID 0000.0001) %MON dynstat_salt_min             =   3.4000000000000E+01
(PID.TID 0000.0001) %MON dynstat_salt_mean            =   3.4498026961319E+01
(PID.TID 0000.0001) %MON dynstat_salt_sd              =   2.7013690516435E-01
(PID.TID 0000.0001) %MON dynstat_salt_del2            =   6.5869120798177E-07
(PID.TID 0000.0001) %MON advcfl_uvel_max              =   1.5245635225864E-03
(PID.TID 0000.0001) %MON advcfl_vvel_max              =   1.1681530553305E-03
(PID.TID 0000.0001) %MON advcfl_wvel_max              =   3.1322721370162E-03
(PID.TID 0000.0001) %MON advcfl_W_hf_max              =   3.1322721370162E-03
(PID.TID 0000.0001) %MON pe_b_mean                    =  -6.8244298657553E-01
(PID.TID 0000.0001) %MON ke_max                       =   7.1206535307057E-05
(PID.TID 0000.0001) %MON ke_mean                      =   1.0525478990725E-07
(PID.TID 0000.0001) %MON ke_vol                       =   4.6182973167750E+12
(PID.TID 0000.0001) // =======================================================
(PID.TID 0000.0001) // End MONITOR dynamic field statistics
(PID.TID 0000.0001) // =======================================================
(PID.TID 0000.0001) // =======================================================
(PID.TID 0000.0001) // Begin OBCS MONITOR field statistics
(PID.TID 0000.0001) // =======================================================
(PID.TID 0000.0001) %MON obc_N_vVel_max               =   2.0925927233206E-08
(PID.TID 0000.0001) %MON obc_N_vVel_min               =   2.0925927233206E-08
(PID.TID 0000.0001) %MON obc_N_vVel_mean              =   2.0925927233206E-08
(PID.TID 0000.0001) %MON obc_N_vVel_sd                =  -1.8341016046389E-29
(PID.TID 0000.0001) %MON obc_N_vVel_Int               =   1.3811111973916E+00
(PID.TID 0000.0001) // =======================================================
(PID.TID 0000.0001) // End OBCS MONITOR field statistics
(PID.TID 0000.0001) // =======================================================
 cg2d: Sum(rhs),rhsMax =   3.01045307656559E+00  4.53046871887916E+02
(PID.TID 0000.0001)      cg2d_init_res =   2.02477619720449E-06
(PID.TID 0000.0001)      cg2d_iters(min,last) =      -1      73
(PID.TID 0000.0001)      cg2d_last_res =   8.50895072517045E-12
(PID.TID 0000.0001) // =======================================================
(PID.TID 0000.0001) // Begin MONITOR dynamic field statistics
(PID.TID 0000.0001) // =======================================================
(PID.TID 0000.0001) %MON time_tsnumber                =                   878
(PID.TID 0000.0001) %MON time_secondsf                =   8.7800000000000E+04
(PID.TID 0000.0001) %MON dynstat_eta_max              =   5.7979042744037E+00
(PID.TID 0000.0001) %MON dynstat_eta_min              =  -1.4174082387788E+01
(PID.TID 0000.0001) %MON dynstat_eta_mean             =  -2.5256969431544E+00
(PID.TID 0000.0001) %MON dynstat_eta_sd               =   4.9415496080482E+00
(PID.TID 0000.0001) %MON dynstat_eta_del2             =   1.9058310842560E-01
(PID.TID 0000.0001) %MON dynstat_uvel_max             =   3.8609177312026E-03
(PID.TID 0000.0001) %MON dynstat_uvel_min             =  -1.5284985361340E-02
(PID.TID 0000.0001) %MON dynstat_uvel_mean            =  -1.3269246565730E-09
(PID.TID 0000.0001) %MON dynstat_uvel_sd              =   4.0420155323623E-04
(PID.TID 0000.0001) %MON dynstat_uvel_del2            =   6.5500357660919E-07
(PID.TID 0000.0001) %MON dynstat_vvel_max             =   1.1703376116479E-02
(PID.TID 0000.0001) %MON dynstat_vvel_min             =  -4.2525713953125E-03
(PID.TID 0000.0001) %MON dynstat_vvel_mean            =   4.6796654883688E-08
(PID.TID 0000.0001) %MON dynstat_vvel_sd              =   2.2654754957008E-04
(PID.TID 0000.0001) %MON dynstat_vvel_del2            =   5.9715748613477E-07
(PID.TID 0000.0001) %MON dynstat_wvel_max             =   6.1337998031094E-04
(PID.TID 0000.0001) %MON dynstat_wvel_min             =  -6.2853739745234E-04
(PID.TID 0000.0001) %MON dynstat_wvel_mean            =   2.1112195711167E-10
(PID.TID 0000.0001) %MON dynstat_wvel_sd              =   1.1904454285894E-05
(PID.TID 0000.0001) %MON dynstat_wvel_del2            =   4.8475274682091E-08
(PID.TID 0000.0001) %MON dynstat_theta_max            =   1.2000000000000E+00
(PID.TID 0000.0001) %MON dynstat_theta_min            =  -1.0000000000000E+00
(PID.TID 0000.0001) %MON dynstat_theta_mean           =   5.6528239312630E-01
(PID.TID 0000.0001) %MON dynstat_theta_sd             =   8.4900409918249E-01
(PID.TID 0000.0001) %MON dynstat_theta_del2           =   1.6755186325106E-06
(PID.TID 0000.0001) %MON dynstat_salt_max             =   3.4700000000000E+01
(PID.TID 0000.0001) %MON dynstat_salt_min             =   3.4000000000000E+01
(PID.TID 0000.0001) %MON dynstat_salt_mean            =   3.4498026797673E+01
(PID.TID 0000.0001) %MON dynstat_salt_sd              =   2.7013684453863E-01
(PID.TID 0000.0001) %MON dynstat_salt_del2            =   6.6012895525196E-07
(PID.TID 0000.0001) %MON advcfl_uvel_max              =   1.5284985361340E-03
(PID.TID 0000.0001) %MON advcfl_vvel_max              =   1.1703376116479E-03
(PID.TID 0000.0001) %MON advcfl_wvel_max              =   3.1426869872617E-03
(PID.TID 0000.0001) %MON advcfl_W_hf_max              =   3.1426869872617E-03
(PID.TID 0000.0001) %MON pe_b_mean                    =  -6.8244192534802E-01
(PID.TID 0000.0001) %MON ke_max                       =   7.1573079475899E-05
(PID.TID 0000.0001) %MON ke_mean                      =   1.0581491774762E-07
(PID.TID 0000.0001) %MON ke_vol                       =   4.6182973384619E+12
(PID.TID 0000.0001) // =======================================================
(PID.TID 0000.0001) // End MONITOR dynamic field statistics
(PID.TID 0000.0001) // =======================================================
(PID.TID 0000.0001) // =======================================================
(PID.TID 0000.0001) // Begin OBCS MONITOR field statistics
(PID.TID 0000.0001) // =======================================================
(PID.TID 0000.0001) %MON obc_N_vVel_max               =   2.6038248693450E-08
(PID.TID 0000.0001) %MON obc_N_vVel_min               =   2.6038248693449E-08
(PID.TID 0000.0001) %MON obc_N_vVel_mean              =   2.6038248693450E-08
(PID.TID 0000.0001) %MON obc_N_vVel_sd                =   2.0591569550578E-15
(PID.TID 0000.0001) %MON obc_N_vVel_Int               =   1.7185244137677E+00
(PID.TID 0000.0001) // =======================================================
(PID.TID 0000.0001) // End OBCS MONITOR field statistics
(PID.TID 0000.0001) // =======================================================
 cg2d: Sum(rhs),rhsMax =   3.01044876010355E+00  4.53046866043706E+02
(PID.TID 0000.0001)      cg2d_init_res =   2.02671074011072E-06
(PID.TID 0000.0001)      cg2d_iters(min,last) =      -1      73
(PID.TID 0000.0001)      cg2d_last_res =   8.53171644319380E-12
(PID.TID 0000.0001) // =======================================================
(PID.TID 0000.0001) // Begin MONITOR dynamic field statistics
(PID.TID 0000.0001) // =======================================================
(PID.TID 0000.0001) %MON time_tsnumber                =                   879
(PID.TID 0000.0001) %MON time_secondsf                =   8.7900000000000E+04
(PID.TID 0000.0001) %MON dynstat_eta_max              =   5.7979069049025E+00
(PID.TID 0000.0001) %MON dynstat_eta_min              =  -1.4174075605652E+01
(PID.TID 0000.0001) %MON dynstat_eta_mean             =  -2.5256932891668E+00
(PID.TID 0000.0001) %MON dynstat_eta_sd               =   4.9415485223336E+00
(PID.TID 0000.0001) %MON dynstat_eta_del2             =   1.9058311757573E-01
(PID.TID 0000.0001) %MON dynstat_uvel_max             =   3.8659710153848E-03
(PID.TID 0000.0001) %MON dynstat_uvel_min             =  -1.5324405274158E-02
(PID.TID 0000.0001) %MON dynstat_uvel_mean            =  -1.3252334915034E-09
(PID.TID 0000.0001) %MON dynstat_uvel_sd              =   4.0531920778605E-04
(PID.TID 0000.0001) %MON dynstat_uvel_del2            =   6.5653851569174E-07
(PID.TID 0000.0001) %MON dynstat_vvel_max             =   1.1725242069420E-02
(PID.TID 0000.0001) %MON dynstat_vvel_min             =  -4.2629554097449E-03
(PID.TID 0000.0001) %MON dynstat_vvel_mean            =   5.1980857920399E-08
(PID.TID 0000.0001) %MON dynstat_vvel_sd              =   2.2707264453571E-04
(PID.TID 0000.0001) %MON dynstat_vvel_del2            =   5.9837383006540E-07
(PID.TID 0000.0001) %MON dynstat_wvel_max             =   6.1512839990545E-04
(PID.TID 0000.0001) %MON dynstat_wvel_min             =  -6.3062647082034E-04
(PID.TID 0000.0001) %MON dynstat_wvel_mean            =   2.0940078852801E-10
(PID.TID 0000.0001) %MON dynstat_wvel_sd              =   1.1911311535038E-05
(PID.TID 0000.0001) %MON dynstat_wvel_del2            =   4.8389018453147E-08
(PID.TID 0000.0001) %MON dynstat_theta_max            =   1.2000000000000E+00
(PID.TID 0000.0001) %MON dynstat_theta_min            =  -1.0000000000000E+00
(PID.TID 0000.0001) %MON dynstat_theta_mean           =   5.6528198153239E-01
(PID.TID 0000.0001) %MON dynstat_theta_sd             =   8.4900393415683E-01
(PID.TID 0000.0001) %MON dynstat_theta_del2           =   1.6791389093097E-06
(PID.TID 0000.0001) %MON dynstat_salt_max             =   3.4700000000000E+01
(PID.TID 0000.0001) %MON dynstat_salt_min             =   3.4000000000000E+01
(PID.TID 0000.0001) %MON dynstat_salt_mean            =   3.4498026633703E+01
(PID.TID 0000.0001) %MON dynstat_salt_sd              =   2.7013678375915E-01
(PID.TID 0000.0001) %MON dynstat_salt_del2            =   6.6156647288313E-07
(PID.TID 0000.0001) %MON advcfl_uvel_max              =   1.5324405274158E-03
(PID.TID 0000.0001) %MON advcfl_vvel_max              =   1.1725242069420E-03
(PID.TID 0000.0001) %MON advcfl_wvel_max              =   3.1531323541017E-03
(PID.TID 0000.0001) %MON advcfl_W_hf_max              =   3.1531323541017E-03
(PID.TID 0000.0001) %MON pe_b_mean                    =  -6.8244086303589E-01
(PID.TID 0000.0001) %MON ke_max                       =   7.1941205484371E-05
(PID.TID 0000.0001) %MON ke_mean                      =   1.0637788942255E-07
(PID.TID 0000.0001) %MON ke_vol                       =   4.6182973601577E+12
(PID.TID 0000.0001) // =======================================================
(PID.TID 0000.0001) // End MONITOR dynamic field statistics
(PID.TID 0000.0001) // =======================================================
(PID.TID 0000.0001) // =======================================================
(PID.TID 0000.0001) // Begin OBCS MONITOR field statistics
(PID.TID 0000.0001) // =======================================================
(PID.TID 0000.0001) %MON obc_N_vVel_max               =   3.1140101025928E-08
(PID.TID 0000.0001) %MON obc_N_vVel_min               =   3.1140101025927E-08
(PID.TID 0000.0001) %MON obc_N_vVel_mean              =   3.1140101025928E-08
(PID.TID 0000.0001) %MON obc_N_vVel_sd                =  -1.9721522630525E-29
(PID.TID 0000.0001) %MON obc_N_vVel_Int               =   2.0552466677112E+00
(PID.TID 0000.0001) // =======================================================
(PID.TID 0000.0001) // End OBCS MONITOR field statistics
(PID.TID 0000.0001) // =======================================================
 cg2d: Sum(rhs),rhsMax =   3.01044444165846E+00  4.53046860218339E+02
(PID.TID 0000.0001)      cg2d_init_res =   2.02912167181829E-06
(PID.TID 0000.0001)      cg2d_iters(min,last) =      -1      73
(PID.TID 0000.0001)      cg2d_last_res =   8.55392336198691E-12
(PID.TID 0000.0001) // =======================================================
(PID.TID 0000.0001) // Begin MONITOR dynamic field statistics
(PID.TID 0000.0001) // =======================================================
(PID.TID 0000.0001) %MON time_tsnumber                =                   880
(PID.TID 0000.0001) %MON time_secondsf                =   8.8000000000000E+04
(PID.TID 0000.0001) %MON dynstat_eta_max              =   5.7979095255261E+00
(PID.TID 0000.0001) %MON dynstat_eta_min              =  -1.4174068809506E+01
(PID.TID 0000.0001) %MON dynstat_eta_mean             =  -2.5256896336206E+00
(PID.TID 0000.0001) %MON dynstat_eta_sd               =   4.9415474364917E+00
(PID.TID 0000.0001) %MON dynstat_eta_del2             =   1.9058312675591E-01
(PID.TID 0000.0001) %MON dynstat_uvel_max             =   3.8710208812791E-03
(PID.TID 0000.0001) %MON dynstat_uvel_min             =  -1.5363894928736E-02
(PID.TID 0000.0001) %MON dynstat_uvel_mean            =  -1.3222732118747E-09
(PID.TID 0000.0001) %MON dynstat_uvel_sd              =   4.0644000412393E-04
(PID.TID 0000.0001) %MON dynstat_uvel_del2            =   6.5807770985330E-07
(PID.TID 0000.0001) %MON dynstat_vvel_max             =   1.1750509303413E-02
(PID.TID 0000.0001) %MON dynstat_vvel_min             =  -4.2733584175112E-03
(PID.TID 0000.0001) %MON dynstat_vvel_mean            =   5.7135030445355E-08
(PID.TID 0000.0001) %MON dynstat_vvel_sd              =   2.2759829525074E-04
(PID.TID 0000.0001) %MON dynstat_vvel_del2            =   5.9960594362444E-07
(PID.TID 0000.0001) %MON dynstat_wvel_max             =   6.1688037919203E-04
(PID.TID 0000.0001) %MON dynstat_wvel_min             =  -6.3272166081830E-04
(PID.TID 0000.0001) %MON dynstat_wvel_mean            =   2.0761308929103E-10
(PID.TID 0000.0001) %MON dynstat_wvel_sd              =   1.1923408534022E-05
(PID.TID 0000.0001) %MON dynstat_wvel_del2            =   4.8356759432501E-08
(PID.TID 0000.0001) %MON dynstat_theta_max            =   1.2000000000000E+00
(PID.TID 0000.0001) %MON dynstat_theta_min            =  -1.0000000000000E+00
(PID.TID 0000.0001) %MON dynstat_theta_mean           =   5.6528156912444E-01
(PID.TID 0000.0001) %MON dynstat_theta_sd             =   8.4900376873797E-01
(PID.TID 0000.0001) %MON dynstat_theta_del2           =   1.6827511182350E-06
(PID.TID 0000.0001) %MON dynstat_salt_max             =   3.4700000000000E+01
(PID.TID 0000.0001) %MON dynstat_salt_min             =   3.4000000000000E+01
(PID.TID 0000.0001) %MON dynstat_salt_mean            =   3.4498026469407E+01
(PID.TID 0000.0001) %MON dynstat_salt_sd              =   2.7013672282439E-01
(PID.TID 0000.0001) %MON dynstat_salt_del2            =   6.6300292877965E-07
(PID.TID 0000.0001) %MON advcfl_uvel_max              =   1.5363894928736E-03
(PID.TID 0000.0001) %MON advcfl_vvel_max              =   1.1750509303413E-03
(PID.TID 0000.0001) %MON advcfl_wvel_max              =   3.1636083040915E-03
(PID.TID 0000.0001) %MON advcfl_W_hf_max              =   3.1636083040915E-03
(PID.TID 0000.0001) %MON pe_b_mean                    =  -6.8243979962499E-01
(PID.TID 0000.0001) %MON ke_max                       =   7.2310917806228E-05
(PID.TID 0000.0001) %MON ke_mean                      =   1.0694374193176E-07
(PID.TID 0000.0001) %MON ke_vol                       =   4.6182973818623E+12
(PID.TID 0000.0001) // =======================================================
(PID.TID 0000.0001) // End MONITOR dynamic field statistics
(PID.TID 0000.0001) // =======================================================
(PID.TID 0000.0001) // =======================================================
(PID.TID 0000.0001) // Begin OBCS MONITOR field statistics
(PID.TID 0000.0001) // =======================================================
(PID.TID 0000.0001) %MON obc_N_vVel_max               =   3.6214660503112E-08
(PID.TID 0000.0001) %MON obc_N_vVel_min               =   3.6214660503112E-08
(PID.TID 0000.0001) %MON obc_N_vVel_mean              =   3.6214660503112E-08
(PID.TID 0000.0001) %MON obc_N_vVel_sd                =  -5.5220263365471E-30
(PID.TID 0000.0001) %MON obc_N_vVel_Int               =   2.3901675932054E+00
(PID.TID 0000.0001) // =======================================================
(PID.TID 0000.0001) // End OBCS MONITOR field statistics
(PID.TID 0000.0001) // =======================================================
 cg2d: Sum(rhs),rhsMax =   3.01044012115464E+00  4.53046854410682E+02
(PID.TID 0000.0001)      cg2d_init_res =   2.03214591724533E-06
(PID.TID 0000.0001)      cg2d_iters(min,last) =      -1      73
(PID.TID 0000.0001)      cg2d_last_res =   8.57569791286652E-12
(PID.TID 0000.0001) // =======================================================
(PID.TID 0000.0001) // Begin MONITOR dynamic field statistics
(PID.TID 0000.0001) // =======================================================
(PID.TID 0000.0001) %MON time_tsnumber                =                   881
(PID.TID 0000.0001) %MON time_secondsf                =   8.8100000000000E+04
(PID.TID 0000.0001) %MON dynstat_eta_max              =   5.7979121362478E+00
(PID.TID 0000.0001) %MON dynstat_eta_min              =  -1.4174061999200E+01
(PID.TID 0000.0001) %MON dynstat_eta_mean             =  -2.5256859764460E+00
(PID.TID 0000.0001) %MON dynstat_eta_sd               =   4.9415463504786E+00
(PID.TID 0000.0001) %MON dynstat_eta_del2             =   1.9058313596593E-01
(PID.TID 0000.0001) %MON dynstat_uvel_max             =   3.8760672860594E-03
(PID.TID 0000.0001) %MON dynstat_uvel_min             =  -1.5403454289012E-02
(PID.TID 0000.0001) %MON dynstat_uvel_mean            =  -1.3179285765164E-09
(PID.TID 0000.0001) %MON dynstat_uvel_sd              =   4.0756394189101E-04
(PID.TID 0000.0001) %MON dynstat_uvel_del2            =   6.5962116987574E-07
(PID.TID 0000.0001) %MON dynstat_vvel_max             =   1.1780088747202E-02
(PID.TID 0000.0001) %MON dynstat_vvel_min             =  -4.2837804651175E-03
(PID.TID 0000.0001) %MON dynstat_vvel_mean            =   6.2240111947401E-08
(PID.TID 0000.0001) %MON dynstat_vvel_sd              =   2.2812453624137E-04
(PID.TID 0000.0001) %MON dynstat_vvel_del2            =   6.0085577460545E-07
(PID.TID 0000.0001) %MON dynstat_wvel_max             =   6.1863592168282E-04
(PID.TID 0000.0001) %MON dynstat_wvel_min             =  -6.3482298070160E-04
(PID.TID 0000.0001) %MON dynstat_wvel_mean            =   2.0574696318277E-10
(PID.TID 0000.0001) %MON dynstat_wvel_sd              =   1.1941615203239E-05
(PID.TID 0000.0001) %MON dynstat_wvel_del2            =   4.8388311836530E-08
(PID.TID 0000.0001) %MON dynstat_theta_max            =   1.2000000000000E+00
(PID.TID 0000.0001) %MON dynstat_theta_min            =  -1.0000000000000E+00
(PID.TID 0000.0001) %MON dynstat_theta_mean           =   5.6528115590416E-01
(PID.TID 0000.0001) %MON dynstat_theta_sd             =   8.4900360292521E-01
(PID.TID 0000.0001) %MON dynstat_theta_del2           =   1.6863535867217E-06
(PID.TID 0000.0001) %MON dynstat_salt_max             =   3.4700000000000E+01
(PID.TID 0000.0001) %MON dynstat_salt_min             =   3.4000000000000E+01
(PID.TID 0000.0001) %MON dynstat_salt_mean            =   3.4498026304788E+01
(PID.TID 0000.0001) %MON dynstat_salt_sd              =   2.7013666173419E-01
(PID.TID 0000.0001) %MON dynstat_salt_del2            =   6.6443789402781E-07
(PID.TID 0000.0001) %MON advcfl_uvel_max              =   1.5403454289012E-03
(PID.TID 0000.0001) %MON advcfl_vvel_max              =   1.1780088747202E-03
(PID.TID 0000.0001) %MON advcfl_wvel_max              =   3.1741149035080E-03
(PID.TID 0000.0001) %MON advcfl_W_hf_max              =   3.1741149035080E-03
(PID.TID 0000.0001) %MON pe_b_mean                    =  -6.8243873509670E-01
(PID.TID 0000.0001) %MON ke_max                       =   7.2682220910817E-05
(PID.TID 0000.0001) %MON ke_mean                      =   1.0751249424781E-07
(PID.TID 0000.0001) %MON ke_vol                       =   4.6182974035763E+12
(PID.TID 0000.0001) // =======================================================
(PID.TID 0000.0001) // End MONITOR dynamic field statistics
(PID.TID 0000.0001) // =======================================================
(PID.TID 0000.0001) // =======================================================
(PID.TID 0000.0001) // Begin OBCS MONITOR field statistics
(PID.TID 0000.0001) // =======================================================
(PID.TID 0000.0001) %MON obc_N_vVel_max               =   4.1244364893364E-08
(PID.TID 0000.0001) %MON obc_N_vVel_min               =   4.1244364893364E-08
(PID.TID 0000.0001) %MON obc_N_vVel_mean              =   4.1244364893364E-08
(PID.TID 0000.0001) %MON obc_N_vVel_sd                =  -5.6009124270692E-29
(PID.TID 0000.0001) %MON obc_N_vVel_Int               =   2.7221280829620E+00
(PID.TID 0000.0001) // =======================================================
(PID.TID 0000.0001) // End OBCS MONITOR field statistics
(PID.TID 0000.0001) // =======================================================
 cg2d: Sum(rhs),rhsMax =   3.01043579849125E+00  4.53046848619336E+02
(PID.TID 0000.0001)      cg2d_init_res =   2.03585945754199E-06
(PID.TID 0000.0001)      cg2d_iters(min,last) =      -1      73
(PID.TID 0000.0001)      cg2d_last_res =   8.59702474199387E-12
(PID.TID 0000.0001) // =======================================================
(PID.TID 0000.0001) // Begin MONITOR dynamic field statistics
(PID.TID 0000.0001) // =======================================================
(PID.TID 0000.0001) %MON time_tsnumber                =                   882
(PID.TID 0000.0001) %MON time_secondsf                =   8.8200000000000E+04
(PID.TID 0000.0001) %MON dynstat_eta_max              =   5.7979147370821E+00
(PID.TID 0000.0001) %MON dynstat_eta_min              =  -1.4174055174568E+01
(PID.TID 0000.0001) %MON dynstat_eta_mean             =  -2.5256823175506E+00
(PID.TID 0000.0001) %MON dynstat_eta_sd               =   4.9415452642468E+00
(PID.TID 0000.0001) %MON dynstat_eta_del2             =   1.9058314520574E-01
(PID.TID 0000.0001) %MON dynstat_uvel_max             =   3.8811101867520E-03
(PID.TID 0000.0001) %MON dynstat_uvel_min             =  -1.5443083318112E-02
(PID.TID 0000.0001) %MON dynstat_uvel_mean            =  -1.3121813256526E-09
(PID.TID 0000.0001) %MON dynstat_uvel_sd              =   4.0869102041595E-04
(PID.TID 0000.0001) %MON dynstat_uvel_del2            =   6.6116890729012E-07
(PID.TID 0000.0001) %MON dynstat_vvel_max             =   1.1809714516585E-02
(PID.TID 0000.0001) %MON dynstat_vvel_min             =  -4.2942215990776E-03
(PID.TID 0000.0001) %MON dynstat_vvel_mean            =   6.7275443103742E-08
(PID.TID 0000.0001) %MON dynstat_vvel_sd              =   2.2865131202436E-04
(PID.TID 0000.0001) %MON dynstat_vvel_del2            =   6.0212384382811E-07
(PID.TID 0000.0001) %MON dynstat_wvel_max             =   6.2039503087723E-04
(PID.TID 0000.0001) %MON dynstat_wvel_min             =  -6.3693044378513E-04
(PID.TID 0000.0001) %MON dynstat_wvel_mean            =   2.0378940822986E-10
(PID.TID 0000.0001) %MON dynstat_wvel_sd              =   1.1966142703891E-05
(PID.TID 0000.0001) %MON dynstat_wvel_del2            =   4.8486885172834E-08
(PID.TID 0000.0001) %MON dynstat_theta_max            =   1.2000000000000E+00
(PID.TID 0000.0001) %MON dynstat_theta_min            =  -1.0000000000000E+00
(PID.TID 0000.0001) %MON dynstat_theta_mean           =   5.6528074187344E-01
(PID.TID 0000.0001) %MON dynstat_theta_sd             =   8.4900343671555E-01
(PID.TID 0000.0001) %MON dynstat_theta_del2           =   1.6899463216425E-06
(PID.TID 0000.0001) %MON dynstat_salt_max             =   3.4700000000000E+01
(PID.TID 0000.0001) %MON dynstat_salt_min             =   3.4000000000000E+01
(PID.TID 0000.0001) %MON dynstat_salt_mean            =   3.4498026139844E+01
(PID.TID 0000.0001) %MON dynstat_salt_sd              =   2.7013660048747E-01
(PID.TID 0000.0001) %MON dynstat_salt_del2            =   6.6587137518719E-07
(PID.TID 0000.0001) %MON advcfl_uvel_max              =   1.5443083318112E-03
(PID.TID 0000.0001) %MON advcfl_vvel_max              =   1.1809714516585E-03
(PID.TID 0000.0001) %MON advcfl_wvel_max              =   3.1846522189257E-03
(PID.TID 0000.0001) %MON advcfl_W_hf_max              =   3.1846522189257E-03
(PID.TID 0000.0001) %MON pe_b_mean                    =  -6.8243766942758E-01
(PID.TID 0000.0001) %MON ke_max                       =   7.3055119264059E-05
(PID.TID 0000.0001) %MON ke_mean                      =   1.0808414473841E-07
(PID.TID 0000.0001) %MON ke_vol                       =   4.6182974252999E+12
(PID.TID 0000.0001) // =======================================================
(PID.TID 0000.0001) // End MONITOR dynamic field statistics
(PID.TID 0000.0001) // =======================================================
(PID.TID 0000.0001) // =======================================================
(PID.TID 0000.0001) // Begin OBCS MONITOR field statistics
(PID.TID 0000.0001) // =======================================================
(PID.TID 0000.0001) %MON obc_N_vVel_max               =   4.6210512598899E-08
(PID.TID 0000.0001) %MON obc_N_vVel_min               =   4.6210512598898E-08
(PID.TID 0000.0001) %MON obc_N_vVel_mean              =   4.6210512598899E-08
(PID.TID 0000.0001) %MON obc_N_vVel_sd                =  -4.2204058429324E-29
(PID.TID 0000.0001) %MON obc_N_vVel_Int               =   3.0498938315273E+00
(PID.TID 0000.0001) // =======================================================
(PID.TID 0000.0001) // End OBCS MONITOR field statistics
(PID.TID 0000.0001) // =======================================================
 cg2d: Sum(rhs),rhsMax =   3.01043147354187E+00  4.53046842842710E+02
(PID.TID 0000.0001)      cg2d_init_res =   2.04026991863158E-06
(PID.TID 0000.0001)      cg2d_iters(min,last) =      -1      73
(PID.TID 0000.0001)      cg2d_last_res =   8.61800445257212E-12
(PID.TID 0000.0001) // =======================================================
(PID.TID 0000.0001) // Begin MONITOR dynamic field statistics
(PID.TID 0000.0001) // =======================================================
(PID.TID 0000.0001) %MON time_tsnumber                =                   883
(PID.TID 0000.0001) %MON time_secondsf                =   8.8300000000000E+04
(PID.TID 0000.0001) %MON dynstat_eta_max              =   5.7979173280884E+00
(PID.TID 0000.0001) %MON dynstat_eta_min              =  -1.4174048335384E+01
(PID.TID 0000.0001) %MON dynstat_eta_mean             =  -2.5256786568194E+00
(PID.TID 0000.0001) %MON dynstat_eta_sd               =   4.9415441777380E+00
(PID.TID 0000.0001) %MON dynstat_eta_del2             =   1.9058315447502E-01
(PID.TID 0000.0001) %MON dynstat_uvel_max             =   3.8861495401683E-03
(PID.TID 0000.0001) %MON dynstat_uvel_min             =  -1.5482781978049E-02
(PID.TID 0000.0001) %MON dynstat_uvel_mean            =  -1.3050943809731E-09
(PID.TID 0000.0001) %MON dynstat_uvel_sd              =   4.0982123869685E-04
(PID.TID 0000.0001) %MON dynstat_uvel_del2            =   6.6272093430931E-07
(PID.TID 0000.0001) %MON dynstat_vvel_max             =   1.1839386568450E-02
(PID.TID 0000.0001) %MON dynstat_vvel_min             =  -4.3046818655776E-03
(PID.TID 0000.0001) %MON dynstat_vvel_mean            =   7.2218689933694E-08
(PID.TID 0000.0001) %MON dynstat_vvel_sd              =   2.2917847662718E-04
(PID.TID 0000.0001) %MON dynstat_vvel_del2            =   6.0340922985406E-07
(PID.TID 0000.0001) %MON dynstat_wvel_max             =   6.2215771020839E-04
(PID.TID 0000.0001) %MON dynstat_wvel_min             =  -6.3904406343539E-04
(PID.TID 0000.0001) %MON dynstat_wvel_mean            =   2.0172845493265E-10
(PID.TID 0000.0001) %MON dynstat_wvel_sd              =   1.1996530173886E-05
(PID.TID 0000.0001) %MON dynstat_wvel_del2            =   4.8648853180908E-08
(PID.TID 0000.0001) %MON dynstat_theta_max            =   1.2000000000000E+00
(PID.TID 0000.0001) %MON dynstat_theta_min            =  -1.0000000000000E+00
(PID.TID 0000.0001) %MON dynstat_theta_mean           =   5.6528032703434E-01
(PID.TID 0000.0001) %MON dynstat_theta_sd             =   8.4900327010089E-01
(PID.TID 0000.0001) %MON dynstat_theta_del2           =   1.6935310023132E-06
(PID.TID 0000.0001) %MON dynstat_salt_max             =   3.4700000000000E+01
(PID.TID 0000.0001) %MON dynstat_salt_min             =   3.4000000000000E+01
(PID.TID 0000.0001) %MON dynstat_salt_mean            =   3.4498025974578E+01
(PID.TID 0000.0001) %MON dynstat_salt_sd              =   2.7013653908156E-01
(PID.TID 0000.0001) %MON dynstat_salt_del2            =   6.6730380724487E-07
(PID.TID 0000.0001) %MON advcfl_uvel_max              =   1.5482781978049E-03
(PID.TID 0000.0001) %MON advcfl_vvel_max              =   1.1839386568450E-03
(PID.TID 0000.0001) %MON advcfl_wvel_max              =   3.1952203171770E-03
(PID.TID 0000.0001) %MON advcfl_W_hf_max              =   3.1952203171770E-03
(PID.TID 0000.0001) %MON pe_b_mean                    =  -6.8243660258911E-01
(PID.TID 0000.0001) %MON ke_max                       =   7.3429617327443E-05
(PID.TID 0000.0001) %MON ke_mean                      =   1.0865867081049E-07
(PID.TID 0000.0001) %MON ke_vol                       =   4.6182974470337E+12
(PID.TID 0000.0001) // =======================================================
(PID.TID 0000.0001) // End MONITOR dynamic field statistics
(PID.TID 0000.0001) // =======================================================
(PID.TID 0000.0001) // =======================================================
(PID.TID 0000.0001) // Begin OBCS MONITOR field statistics
(PID.TID 0000.0001) // =======================================================
(PID.TID 0000.0001) %MON obc_N_vVel_max               =   5.1092895442906E-08
(PID.TID 0000.0001) %MON obc_N_vVel_min               =   5.1092895442905E-08
(PID.TID 0000.0001) %MON obc_N_vVel_mean              =   5.1092895442906E-08
(PID.TID 0000.0001) %MON obc_N_vVel_sd                =  -2.3665827156630E-29
(PID.TID 0000.0001) %MON obc_N_vVel_Int               =   3.3721310992318E+00
(PID.TID 0000.0001) // =======================================================
(PID.TID 0000.0001) // End OBCS MONITOR field statistics
(PID.TID 0000.0001) // =======================================================
 cg2d: Sum(rhs),rhsMax =   3.01042714615534E+00  4.53046837078783E+02
(PID.TID 0000.0001)      cg2d_init_res =   2.04531825125121E-06
(PID.TID 0000.0001)      cg2d_iters(min,last) =      -1      73
(PID.TID 0000.0001)      cg2d_last_res =   8.63876593565038E-12
(PID.TID 0000.0001) // =======================================================
(PID.TID 0000.0001) // Begin MONITOR dynamic field statistics
(PID.TID 0000.0001) // =======================================================
(PID.TID 0000.0001) %MON time_tsnumber                =                   884
(PID.TID 0000.0001) %MON time_secondsf                =   8.8400000000000E+04
(PID.TID 0000.0001) %MON dynstat_eta_max              =   5.7979199093724E+00
(PID.TID 0000.0001) %MON dynstat_eta_min              =  -1.4174041481401E+01
(PID.TID 0000.0001) %MON dynstat_eta_mean             =  -2.5256749941144E+00
(PID.TID 0000.0001) %MON dynstat_eta_sd               =   4.9415430908846E+00
(PID.TID 0000.0001) %MON dynstat_eta_del2             =   1.9058316377356E-01
(PID.TID 0000.0001) %MON dynstat_uvel_max             =   3.8911853028694E-03
(PID.TID 0000.0001) %MON dynstat_uvel_min             =  -1.5522550229615E-02
(PID.TID 0000.0001) %MON dynstat_uvel_mean            =  -1.2967834082235E-09
(PID.TID 0000.0001) %MON dynstat_uvel_sd              =   4.1095459538253E-04
(PID.TID 0000.0001) %MON dynstat_uvel_del2            =   6.6427726363231E-07
(PID.TID 0000.0001) %MON dynstat_vvel_max             =   1.1869104859685E-02
(PID.TID 0000.0001) %MON dynstat_vvel_min             =  -4.3151613102674E-03
(PID.TID 0000.0001) %MON dynstat_vvel_mean            =   7.7045942491037E-08
(PID.TID 0000.0001) %MON dynstat_vvel_sd              =   2.2970580290104E-04
(PID.TID 0000.0001) %MON dynstat_vvel_del2            =   6.0470969582088E-07
(PID.TID 0000.0001) %MON dynstat_wvel_max             =   6.2392396308268E-04
(PID.TID 0000.0001) %MON dynstat_wvel_min             =  -6.4116385316522E-04
(PID.TID 0000.0001) %MON dynstat_wvel_mean            =   1.9955543240293E-10
(PID.TID 0000.0001) %MON dynstat_wvel_sd              =   1.2031701436405E-05
(PID.TID 0000.0001) %MON dynstat_wvel_del2            =   4.8864303036316E-08
(PID.TID 0000.0001) %MON dynstat_theta_max            =   1.2000000000000E+00
(PID.TID 0000.0001) %MON dynstat_theta_min            =  -1.0000000000000E+00
(PID.TID 0000.0001) %MON dynstat_theta_mean           =   5.6527991138919E-01
(PID.TID 0000.0001) %MON dynstat_theta_sd             =   8.4900310307196E-01
(PID.TID 0000.0001) %MON dynstat_theta_del2           =   1.6971107344408E-06
(PID.TID 0000.0001) %MON dynstat_salt_max             =   3.4700000000000E+01
(PID.TID 0000.0001) %MON dynstat_salt_min             =   3.4000000000000E+01
(PID.TID 0000.0001) %MON dynstat_salt_mean            =   3.4498025808988E+01
(PID.TID 0000.0001) %MON dynstat_salt_sd              =   2.7013647751361E-01
(PID.TID 0000.0001) %MON dynstat_salt_del2            =   6.6873599265937E-07
(PID.TID 0000.0001) %MON advcfl_uvel_max              =   1.5522550229615E-03
(PID.TID 0000.0001) %MON advcfl_vvel_max              =   1.1869104859685E-03
(PID.TID 0000.0001) %MON advcfl_wvel_max              =   3.2058192658261E-03
(PID.TID 0000.0001) %MON advcfl_W_hf_max              =   3.2058192658261E-03
(PID.TID 0000.0001) %MON pe_b_mean                    =  -6.8243553454775E-01
(PID.TID 0000.0001) %MON ke_max                       =   7.3805719557879E-05
(PID.TID 0000.0001) %MON ke_mean                      =   1.0923603080106E-07
(PID.TID 0000.0001) %MON ke_vol                       =   4.6182974687785E+12
(PID.TID 0000.0001) // =======================================================
(PID.TID 0000.0001) // End MONITOR dynamic field statistics
(PID.TID 0000.0001) // =======================================================
(PID.TID 0000.0001) // =======================================================
(PID.TID 0000.0001) // Begin OBCS MONITOR field statistics
(PID.TID 0000.0001) // =======================================================
(PID.TID 0000.0001) %MON obc_N_vVel_max               =   5.5869528696015E-08
(PID.TID 0000.0001) %MON obc_N_vVel_min               =   5.5869528696014E-08
(PID.TID 0000.0001) %MON obc_N_vVel_mean              =   5.5869528696015E-08
(PID.TID 0000.0001) %MON obc_N_vVel_sd                =  -6.7842037849007E-29
(PID.TID 0000.0001) %MON obc_N_vVel_Int               =   3.6873888939370E+00
(PID.TID 0000.0001) // =======================================================
(PID.TID 0000.0001) // End OBCS MONITOR field statistics
(PID.TID 0000.0001) // =======================================================
 cg2d: Sum(rhs),rhsMax =   3.01042281614872E+00  4.53046831325537E+02
(PID.TID 0000.0001)      cg2d_init_res =   2.05088649073082E-06
(PID.TID 0000.0001)      cg2d_iters(min,last) =      -1      73
(PID.TID 0000.0001)      cg2d_last_res =   8.65948490892920E-12
(PID.TID 0000.0001) // =======================================================
(PID.TID 0000.0001) // Begin MONITOR dynamic field statistics
(PID.TID 0000.0001) // =======================================================
(PID.TID 0000.0001) %MON time_tsnumber                =                   885
(PID.TID 0000.0001) %MON time_secondsf                =   8.8500000000000E+04
(PID.TID 0000.0001) %MON dynstat_eta_max              =   5.7979224810909E+00
(PID.TID 0000.0001) %MON dynstat_eta_min              =  -1.4174034612297E+01
(PID.TID 0000.0001) %MON dynstat_eta_mean             =  -2.5256713292709E+00
(PID.TID 0000.0001) %MON dynstat_eta_sd               =   4.9415420036085E+00
(PID.TID 0000.0001) %MON dynstat_eta_del2             =   1.9058317310116E-01
(PID.TID 0000.0001) %MON dynstat_uvel_max             =   3.8962174311408E-03
(PID.TID 0000.0001) %MON dynstat_uvel_min             =  -1.5562388032529E-02
(PID.TID 0000.0001) %MON dynstat_uvel_mean            =  -1.2873770674523E-09
(PID.TID 0000.0001) %MON dynstat_uvel_sd              =   4.1209108875196E-04
(PID.TID 0000.0001) %MON dynstat_uvel_del2            =   6.6583790815168E-07
(PID.TID 0000.0001) %MON dynstat_vvel_max             =   1.1898869347298E-02
(PID.TID 0000.0001) %MON dynstat_vvel_min             =  -4.3256599781811E-03
(PID.TID 0000.0001) %MON dynstat_vvel_mean            =   8.1731915730347E-08
(PID.TID 0000.0001) %MON dynstat_vvel_sd              =   2.3023300061459E-04
(PID.TID 0000.0001) %MON dynstat_vvel_del2            =   6.0602194265858E-07
(PID.TID 0000.0001) %MON dynstat_wvel_max             =   6.2569379285323E-04
(PID.TID 0000.0001) %MON dynstat_wvel_min             =  -6.4328982657158E-04
(PID.TID 0000.0001) %MON dynstat_wvel_mean            =   1.9726707121871E-10
(PID.TID 0000.0001) %MON dynstat_wvel_sd              =   1.2070083570376E-05
(PID.TID 0000.0001) %MON dynstat_wvel_del2            =   4.9118271700016E-08
(PID.TID 0000.0001) %MON dynstat_theta_max            =   1.2000000000000E+00
(PID.TID 0000.0001) %MON dynstat_theta_min            =  -1.0000000000000E+00
(PID.TID 0000.0001) %MON dynstat_theta_mean           =   5.6527949494029E-01
(PID.TID 0000.0001) %MON dynstat_theta_sd             =   8.4900293562012E-01
(PID.TID 0000.0001) %MON dynstat_theta_del2           =   1.7006897423648E-06
(PID.TID 0000.0001) %MON dynstat_salt_max             =   3.4700000000000E+01
(PID.TID 0000.0001) %MON dynstat_salt_min             =   3.4000000000000E+01
(PID.TID 0000.0001) %MON dynstat_salt_mean            =   3.4498025643076E+01
(PID.TID 0000.0001) %MON dynstat_salt_sd              =   2.7013641578089E-01
(PID.TID 0000.0001) %MON dynstat_salt_del2            =   6.7016902161418E-07
(PID.TID 0000.0001) %MON advcfl_uvel_max              =   1.5562388032529E-03
(PID.TID 0000.0001) %MON advcfl_vvel_max              =   1.1898869347298E-03
(PID.TID 0000.0001) %MON advcfl_wvel_max              =   3.2164491328579E-03
(PID.TID 0000.0001) %MON advcfl_W_hf_max              =   3.2164491328579E-03
(PID.TID 0000.0001) %MON pe_b_mean                    =  -6.8243446526436E-01
(PID.TID 0000.0001) %MON ke_max                       =   7.4183430409230E-05
(PID.TID 0000.0001) %MON ke_mean                      =   1.0981616791780E-07
(PID.TID 0000.0001) %MON ke_vol                       =   4.6182974905350E+12
(PID.TID 0000.0001) // =======================================================
(PID.TID 0000.0001) // End MONITOR dynamic field statistics
(PID.TID 0000.0001) // =======================================================
(PID.TID 0000.0001) // =======================================================
(PID.TID 0000.0001) // Begin OBCS MONITOR field statistics
(PID.TID 0000.0001) // =======================================================
(PID.TID 0000.0001) %MON obc_N_vVel_max               =   6.0516544756354E-08
(PID.TID 0000.0001) %MON obc_N_vVel_min               =   6.0516544756353E-08
(PID.TID 0000.0001) %MON obc_N_vVel_mean              =   6.0516544756353E-08
(PID.TID 0000.0001) %MON obc_N_vVel_sd                =   8.6568923983145E-15
(PID.TID 0000.0001) %MON obc_N_vVel_Int               =   3.9940919539193E+00
(PID.TID 0000.0001) // =======================================================
(PID.TID 0000.0001) // End OBCS MONITOR field statistics
(PID.TID 0000.0001) // =======================================================
 cg2d: Sum(rhs),rhsMax =   3.01041848329986E+00  4.53046825580706E+02
(PID.TID 0000.0001)      cg2d_init_res =   2.05681348077911E-06
(PID.TID 0000.0001)      cg2d_iters(min,last) =      -1      73
(PID.TID 0000.0001)      cg2d_last_res =   8.68030399720840E-12
(PID.TID 0000.0001) // =======================================================
(PID.TID 0000.0001) // Begin MONITOR dynamic field statistics
(PID.TID 0000.0001) // =======================================================
(PID.TID 0000.0001) %MON time_tsnumber                =                   886
(PID.TID 0000.0001) %MON time_secondsf                =   8.8600000000000E+04
(PID.TID 0000.0001) %MON dynstat_eta_max              =   5.7979250434517E+00
(PID.TID 0000.0001) %MON dynstat_eta_min              =  -1.4174027727714E+01
(PID.TID 0000.0001) %MON dynstat_eta_mean             =  -2.5256676620898E+00
(PID.TID 0000.0001) %MON dynstat_eta_sd               =   4.9415409158218E+00
(PID.TID 0000.0001) %MON dynstat_eta_del2             =   1.9058318245782E-01
(PID.TID 0000.0001) %MON dynstat_uvel_max             =   3.9012458813588E-03
(PID.TID 0000.0001) %MON dynstat_uvel_min             =  -1.5602295345675E-02
(PID.TID 0000.0001) %MON dynstat_uvel_mean            =  -1.2769852584994E-09
(PID.TID 0000.0001) %MON dynstat_uvel_sd              =   4.1323071669495E-04
(PID.TID 0000.0001) %MON dynstat_uvel_del2            =   6.6740288066200E-07
(PID.TID 0000.0001) %MON dynstat_vvel_max             =   1.1928679988188E-02
(PID.TID 0000.0001) %MON dynstat_vvel_min             =  -4.3361779140012E-03
(PID.TID 0000.0001) %MON dynstat_vvel_mean            =   8.6250174628928E-08
(PID.TID 0000.0001) %MON dynstat_vvel_sd              =   2.3075974149762E-04
(PID.TID 0000.0001) %MON dynstat_vvel_del2            =   6.0734196087767E-07
(PID.TID 0000.0001) %MON dynstat_wvel_max             =   6.2746720284320E-04
(PID.TID 0000.0001) %MON dynstat_wvel_min             =  -6.4542199735151E-04
(PID.TID 0000.0001) %MON dynstat_wvel_mean            =   1.9486593103422E-10
(PID.TID 0000.0001) %MON dynstat_wvel_sd              =   1.2109772187177E-05
(PID.TID 0000.0001) %MON dynstat_wvel_del2            =   4.9392478840138E-08
(PID.TID 0000.0001) %MON dynstat_theta_max            =   1.2000000000000E+00
(PID.TID 0000.0001) %MON dynstat_theta_min            =  -1.0000000000000E+00
(PID.TID 0000.0001) %MON dynstat_theta_mean           =   5.6527907768915E-01
(PID.TID 0000.0001) %MON dynstat_theta_sd             =   8.4900276774119E-01
(PID.TID 0000.0001) %MON dynstat_theta_del2           =   1.7042729346353E-06
(PID.TID 0000.0001) %MON dynstat_salt_max             =   3.4700000000000E+01
(PID.TID 0000.0001) %MON dynstat_salt_min             =   3.4000000000000E+01
(PID.TID 0000.0001) %MON dynstat_salt_mean            =   3.4498025476842E+01
(PID.TID 0000.0001) %MON dynstat_salt_sd              =   2.7013635388189E-01
(PID.TID 0000.0001) %MON dynstat_salt_del2            =   6.7160416103108E-07
(PID.TID 0000.0001) %MON advcfl_uvel_max              =   1.5602295345675E-03
(PID.TID 0000.0001) %MON advcfl_vvel_max              =   1.1928679988188E-03
(PID.TID 0000.0001) %MON advcfl_wvel_max              =   3.2271099867576E-03
(PID.TID 0000.0001) %MON advcfl_W_hf_max              =   3.2271099867576E-03
(PID.TID 0000.0001) %MON pe_b_mean                    =  -6.8243339469283E-01
(PID.TID 0000.0001) %MON ke_max                       =   7.4562754332973E-05
(PID.TID 0000.0001) %MON ke_mean                      =   1.1039901584186E-07
(PID.TID 0000.0001) %MON ke_vol                       =   4.6182975123041E+12
(PID.TID 0000.0001) // =======================================================
(PID.TID 0000.0001) // End MONITOR dynamic field statistics
(PID.TID 0000.0001) // =======================================================
(PID.TID 0000.0001) // =======================================================
(PID.TID 0000.0001) // Begin OBCS MONITOR field statistics
(PID.TID 0000.0001) // =======================================================
(PID.TID 0000.0001) %MON obc_N_vVel_max               =   6.5008355134648E-08
(PID.TID 0000.0001) %MON obc_N_vVel_min               =   6.5008355134647E-08
(PID.TID 0000.0001) %MON obc_N_vVel_mean              =   6.5008355134647E-08
(PID.TID 0000.0001) %MON obc_N_vVel_sd                =   3.5527136788005E-15
(PID.TID 0000.0001) %MON obc_N_vVel_Int               =   4.2905514388867E+00
(PID.TID 0000.0001) // =======================================================
(PID.TID 0000.0001) // End OBCS MONITOR field statistics
(PID.TID 0000.0001) // =======================================================
 cg2d: Sum(rhs),rhsMax =   3.01041414736128E+00  4.53046819841790E+02
(PID.TID 0000.0001)      cg2d_init_res =   2.06291231858284E-06
(PID.TID 0000.0001)      cg2d_iters(min,last) =      -1      73
(PID.TID 0000.0001)      cg2d_last_res =   8.70131997200736E-12
(PID.TID 0000.0001) // =======================================================
(PID.TID 0000.0001) // Begin MONITOR dynamic field statistics
(PID.TID 0000.0001) // =======================================================
(PID.TID 0000.0001) %MON time_tsnumber                =                   887
(PID.TID 0000.0001) %MON time_secondsf                =   8.8700000000000E+04
(PID.TID 0000.0001) %MON dynstat_eta_max              =   5.7979275967260E+00
(PID.TID 0000.0001) %MON dynstat_eta_min              =  -1.4174020827245E+01
(PID.TID 0000.0001) %MON dynstat_eta_mean             =  -2.5256639923496E+00
(PID.TID 0000.0001) %MON dynstat_eta_sd               =   4.9415398274291E+00
(PID.TID 0000.0001) %MON dynstat_eta_del2             =   1.9058319184350E-01
(PID.TID 0000.0001) %MON dynstat_uvel_max             =   3.9062706100417E-03
(PID.TID 0000.0001) %MON dynstat_uvel_min             =  -1.5642272127138E-02
(PID.TID 0000.0001) %MON dynstat_uvel_mean            =  -1.2656900164741E-09
(PID.TID 0000.0001) %MON dynstat_uvel_sd              =   4.1437347669249E-04
(PID.TID 0000.0001) %MON dynstat_uvel_del2            =   6.6897219347516E-07
(PID.TID 0000.0001) %MON dynstat_vvel_max             =   1.1958536738954E-02
(PID.TID 0000.0001) %MON dynstat_vvel_min             =  -4.3467151621766E-03
(PID.TID 0000.0001) %MON dynstat_vvel_mean            =   9.0573344769868E-08
(PID.TID 0000.0001) %MON dynstat_vvel_sd              =   2.3128568873078E-04
(PID.TID 0000.0001) %MON dynstat_vvel_del2            =   6.0866544385341E-07
(PID.TID 0000.0001) %MON dynstat_wvel_max             =   6.2924419634845E-04
(PID.TID 0000.0001) %MON dynstat_wvel_min             =  -6.4756037922773E-04
(PID.TID 0000.0001) %MON dynstat_wvel_mean            =   1.9236007834561E-10
(PID.TID 0000.0001) %MON dynstat_wvel_sd              =   1.2148723829904E-05
(PID.TID 0000.0001) %MON dynstat_wvel_del2            =   4.9667315011245E-08
(PID.TID 0000.0001) %MON dynstat_theta_max            =   1.2000000000000E+00
(PID.TID 0000.0001) %MON dynstat_theta_min            =  -1.0000000000000E+00
(PID.TID 0000.0001) %MON dynstat_theta_mean           =   5.6527865963788E-01
(PID.TID 0000.0001) %MON dynstat_theta_sd             =   8.4900259943336E-01
(PID.TID 0000.0001) %MON dynstat_theta_del2           =   1.7078654182789E-06
(PID.TID 0000.0001) %MON dynstat_salt_max             =   3.4700000000000E+01
(PID.TID 0000.0001) %MON dynstat_salt_min             =   3.4000000000000E+01
(PID.TID 0000.0001) %MON dynstat_salt_mean            =   3.4498025310286E+01
(PID.TID 0000.0001) %MON dynstat_salt_sd              =   2.7013629181597E-01
(PID.TID 0000.0001) %MON dynstat_salt_del2            =   6.7304273184072E-07
(PID.TID 0000.0001) %MON advcfl_uvel_max              =   1.5642272127138E-03
(PID.TID 0000.0001) %MON advcfl_vvel_max              =   1.1958536738954E-03
(PID.TID 0000.0001) %MON advcfl_wvel_max              =   3.2378018961386E-03
(PID.TID 0000.0001) %MON advcfl_W_hf_max              =   3.2378018961386E-03
(PID.TID 0000.0001) %MON pe_b_mean                    =  -6.8243232278297E-01
(PID.TID 0000.0001) %MON ke_max                       =   7.4943695777791E-05
(PID.TID 0000.0001) %MON ke_mean                      =   1.1098450543879E-07
(PID.TID 0000.0001) %MON ke_vol                       =   4.6182975340872E+12
(PID.TID 0000.0001) // =======================================================
(PID.TID 0000.0001) // End MONITOR dynamic field statistics
(PID.TID 0000.0001) // =======================================================
(PID.TID 0000.0001) // =======================================================
(PID.TID 0000.0001) // Begin OBCS MONITOR field statistics
(PID.TID 0000.0001) // =======================================================
(PID.TID 0000.0001) %MON obc_N_vVel_max               =   6.9317937775442E-08
(PID.TID 0000.0001) %MON obc_N_vVel_min               =   6.9317937775441E-08
(PID.TID 0000.0001) %MON obc_N_vVel_mean              =   6.9317937775441E-08
(PID.TID 0000.0001) %MON obc_N_vVel_sd                =   1.3902191258185E-14
(PID.TID 0000.0001) %MON obc_N_vVel_Int               =   4.5749838931791E+00
(PID.TID 0000.0001) // =======================================================
(PID.TID 0000.0001) // End OBCS MONITOR field statistics
(PID.TID 0000.0001) // =======================================================
 cg2d: Sum(rhs),rhsMax =   3.01040980804922E+00  4.53046814106155E+02
(PID.TID 0000.0001)      cg2d_init_res =   2.06897851545122E-06
(PID.TID 0000.0001)      cg2d_iters(min,last) =      -1      73
(PID.TID 0000.0001)      cg2d_last_res =   8.72246705331535E-12
(PID.TID 0000.0001) // =======================================================
(PID.TID 0000.0001) // Begin MONITOR dynamic field statistics
(PID.TID 0000.0001) // =======================================================
(PID.TID 0000.0001) %MON time_tsnumber                =                   888
(PID.TID 0000.0001) %MON time_secondsf                =   8.8800000000000E+04
(PID.TID 0000.0001) %MON dynstat_eta_max              =   5.7979301412510E+00
(PID.TID 0000.0001) %MON dynstat_eta_min              =  -1.4174013910418E+01
(PID.TID 0000.0001) %MON dynstat_eta_mean             =  -2.5256603197974E+00
(PID.TID 0000.0001) %MON dynstat_eta_sd               =   4.9415387383227E+00
(PID.TID 0000.0001) %MON dynstat_eta_del2             =   1.9058320125808E-01
(PID.TID 0000.0001) %MON dynstat_uvel_max             =   3.9112915739743E-03
(PID.TID 0000.0001) %MON dynstat_uvel_min             =  -1.5682318334459E-02
(PID.TID 0000.0001) %MON dynstat_uvel_mean            =  -1.2535384511068E-09
(PID.TID 0000.0001) %MON dynstat_uvel_sd              =   4.1551936580500E-04
(PID.TID 0000.0001) %MON dynstat_uvel_del2            =   6.7054585808732E-07
(PID.TID 0000.0001) %MON dynstat_vvel_max             =   1.1988439555493E-02
(PID.TID 0000.0001) %MON dynstat_vvel_min             =  -4.3572717668532E-03
(PID.TID 0000.0001) %MON dynstat_vvel_mean            =   9.4673311955048E-08
(PID.TID 0000.0001) %MON dynstat_vvel_sd              =   2.3181052800645E-04
(PID.TID 0000.0001) %MON dynstat_vvel_del2            =   6.0998822034530E-07
(PID.TID 0000.0001) %MON dynstat_wvel_max             =   6.3102477666234E-04
(PID.TID 0000.0001) %MON dynstat_wvel_min             =  -6.4970498598854E-04
(PID.TID 0000.0001) %MON dynstat_wvel_mean            =   1.8976126089620E-10
(PID.TID 0000.0001) %MON dynstat_wvel_sd              =   1.2184954469419E-05
(PID.TID 0000.0001) %MON dynstat_wvel_del2            =   4.9923842985337E-08
(PID.TID 0000.0001) %MON dynstat_theta_max            =   1.2000000000000E+00
(PID.TID 0000.0001) %MON dynstat_theta_min            =  -1.0000000000000E+00
(PID.TID 0000.0001) %MON dynstat_theta_mean           =   5.6527824078824E-01
(PID.TID 0000.0001) %MON dynstat_theta_sd             =   8.4900243069695E-01
(PID.TID 0000.0001) %MON dynstat_theta_del2           =   1.7114720220362E-06
(PID.TID 0000.0001) %MON dynstat_salt_max             =   3.4700000000000E+01
(PID.TID 0000.0001) %MON dynstat_salt_min             =   3.4000000000000E+01
(PID.TID 0000.0001) %MON dynstat_salt_mean            =   3.4498025143409E+01
(PID.TID 0000.0001) %MON dynstat_salt_sd              =   2.7013622958338E-01
(PID.TID 0000.0001) %MON dynstat_salt_del2            =   6.7448598506103E-07
(PID.TID 0000.0001) %MON advcfl_uvel_max              =   1.5682318334459E-03
(PID.TID 0000.0001) %MON advcfl_vvel_max              =   1.1988439555493E-03
(PID.TID 0000.0001) %MON advcfl_wvel_max              =   3.2485249299427E-03
(PID.TID 0000.0001) %MON advcfl_W_hf_max              =   3.2485249299427E-03
(PID.TID 0000.0001) %MON pe_b_mean                    =  -6.8243124947838E-01
(PID.TID 0000.0001) %MON ke_max                       =   7.5326259190257E-05
(PID.TID 0000.0001) %MON ke_mean                      =   1.1157257193102E-07
(PID.TID 0000.0001) %MON ke_vol                       =   4.6182975558854E+12
(PID.TID 0000.0001) // =======================================================
(PID.TID 0000.0001) // End MONITOR dynamic field statistics
(PID.TID 0000.0001) // =======================================================
(PID.TID 0000.0001) // =======================================================
(PID.TID 0000.0001) // Begin OBCS MONITOR field statistics
(PID.TID 0000.0001) // =======================================================
(PID.TID 0000.0001) %MON obc_N_vVel_max               =   7.3417249049250E-08
(PID.TID 0000.0001) %MON obc_N_vVel_min               =   7.3417249049250E-08
(PID.TID 0000.0001) %MON obc_N_vVel_mean              =   7.3417249049250E-08
(PID.TID 0000.0001) %MON obc_N_vVel_sd                =   1.3173814904902E-14
(PID.TID 0000.0001) %MON obc_N_vVel_Int               =   4.8455384372505E+00
(PID.TID 0000.0001) // =======================================================
(PID.TID 0000.0001) // End OBCS MONITOR field statistics
(PID.TID 0000.0001) // =======================================================
 cg2d: Sum(rhs),rhsMax =   3.01040546504219E+00  4.53046808370993E+02
(PID.TID 0000.0001)      cg2d_init_res =   2.07481888071036E-06
(PID.TID 0000.0001)      cg2d_iters(min,last) =      -1      73
(PID.TID 0000.0001)      cg2d_last_res =   8.74372775266186E-12
(PID.TID 0000.0001) // =======================================================
(PID.TID 0000.0001) // Begin MONITOR dynamic field statistics
(PID.TID 0000.0001) // =======================================================
(PID.TID 0000.0001) %MON time_tsnumber                =                   889
(PID.TID 0000.0001) %MON time_secondsf                =   8.8900000000000E+04
(PID.TID 0000.0001) %MON dynstat_eta_max              =   5.7979326774222E+00
(PID.TID 0000.0001) %MON dynstat_eta_min              =  -1.4174006976722E+01
(PID.TID 0000.0001) %MON dynstat_eta_mean             =  -2.5256566441481E+00
(PID.TID 0000.0001) %MON dynstat_eta_sd               =   4.9415376483837E+00
(PID.TID 0000.0001) %MON dynstat_eta_del2             =   1.9058321070134E-01
(PID.TID 0000.0001) %MON dynstat_uvel_max             =   3.9163087300729E-03
(PID.TID 0000.0001) %MON dynstat_uvel_min             =  -1.5722433924526E-02
(PID.TID 0000.0001) %MON dynstat_uvel_mean            =  -1.2405354028226E-09
(PID.TID 0000.0001) %MON dynstat_uvel_sd              =   4.1666838066811E-04
(PID.TID 0000.0001) %MON dynstat_uvel_del2            =   6.7212388485465E-07
(PID.TID 0000.0001) %MON dynstat_vvel_max             =   1.2018388393053E-02
(PID.TID 0000.0001) %MON dynstat_vvel_min             =  -4.3678477722304E-03
(PID.TID 0000.0001) %MON dynstat_vvel_mean            =   9.8521412242299E-08
(PID.TID 0000.0001) %MON dynstat_vvel_sd              =   2.3233399718859E-04
(PID.TID 0000.0001) %MON dynstat_vvel_del2            =   6.1130666283584E-07
(PID.TID 0000.0001) %MON dynstat_wvel_max             =   6.3280894705697E-04
(PID.TID 0000.0001) %MON dynstat_wvel_min             =  -6.5185583137881E-04
(PID.TID 0000.0001) %MON dynstat_wvel_mean            =   1.8708332045068E-10
(PID.TID 0000.0001) %MON dynstat_wvel_sd              =   1.2216724244694E-05
(PID.TID 0000.0001) %MON dynstat_wvel_del2            =   5.0145606404929E-08
(PID.TID 0000.0001) %MON dynstat_theta_max            =   1.2000000000000E+00
(PID.TID 0000.0001) %MON dynstat_theta_min            =  -1.0000000000000E+00
(PID.TID 0000.0001) %MON dynstat_theta_mean           =   5.6527782114147E-01
(PID.TID 0000.0001) %MON dynstat_theta_sd             =   8.4900226152941E-01
(PID.TID 0000.0001) %MON dynstat_theta_del2           =   1.7150968556571E-06
(PID.TID 0000.0001) %MON dynstat_salt_max             =   3.4700000000000E+01
(PID.TID 0000.0001) %MON dynstat_salt_min             =   3.4000000000000E+01
(PID.TID 0000.0001) %MON dynstat_salt_mean            =   3.4498024976211E+01
(PID.TID 0000.0001) %MON dynstat_salt_sd              =   2.7013616718319E-01
(PID.TID 0000.0001) %MON dynstat_salt_del2            =   6.7593498156759E-07
(PID.TID 0000.0001) %MON advcfl_uvel_max              =   1.5722433924526E-03
(PID.TID 0000.0001) %MON advcfl_vvel_max              =   1.2018388393053E-03
(PID.TID 0000.0001) %MON advcfl_wvel_max              =   3.2592791568940E-03
(PID.TID 0000.0001) %MON advcfl_W_hf_max              =   3.2592791568940E-03
(PID.TID 0000.0001) %MON pe_b_mean                    =  -6.8243017471629E-01
(PID.TID 0000.0001) %MON ke_max                       =   7.5710449013659E-05
(PID.TID 0000.0001) %MON ke_mean                      =   1.1216316184660E-07
(PID.TID 0000.0001) %MON ke_vol                       =   4.6182975777004E+12
(PID.TID 0000.0001) // =======================================================
(PID.TID 0000.0001) // End MONITOR dynamic field statistics
(PID.TID 0000.0001) // =======================================================
(PID.TID 0000.0001) // =======================================================
(PID.TID 0000.0001) // Begin OBCS MONITOR field statistics
(PID.TID 0000.0001) // =======================================================
(PID.TID 0000.0001) %MON obc_N_vVel_max               =   7.7277601069963E-08
(PID.TID 0000.0001) %MON obc_N_vVel_min               =   7.7277601069963E-08
(PID.TID 0000.0001) %MON obc_N_vVel_mean              =   7.7277601069963E-08
(PID.TID 0000.0001) %MON obc_N_vVel_sd                =  -6.9419759659449E-29
(PID.TID 0000.0001) %MON obc_N_vVel_Int               =   5.1003216706175E+00
(PID.TID 0000.0001) // =======================================================
(PID.TID 0000.0001) // End OBCS MONITOR field statistics
(PID.TID 0000.0001) // =======================================================
 cg2d: Sum(rhs),rhsMax =   3.01040111798023E+00  4.53046802633490E+02
(PID.TID 0000.0001)      cg2d_init_res =   2.08027787180581E-06
(PID.TID 0000.0001)      cg2d_iters(min,last) =      -1      73
(PID.TID 0000.0001)      cg2d_last_res =   8.76505780213884E-12
(PID.TID 0000.0001) // =======================================================
(PID.TID 0000.0001) // Begin MONITOR dynamic field statistics
(PID.TID 0000.0001) // =======================================================
(PID.TID 0000.0001) %MON time_tsnumber                =                   890
(PID.TID 0000.0001) %MON time_secondsf                =   8.9000000000000E+04
(PID.TID 0000.0001) %MON dynstat_eta_max              =   5.7979352056967E+00
(PID.TID 0000.0001) %MON dynstat_eta_min              =  -1.4174000025587E+01
(PID.TID 0000.0001) %MON dynstat_eta_mean             =  -2.5256529650838E+00
(PID.TID 0000.0001) %MON dynstat_eta_sd               =   4.9415365574862E+00
(PID.TID 0000.0001) %MON dynstat_eta_del2             =   1.9058322017328E-01
(PID.TID 0000.0001) %MON dynstat_uvel_max             =   3.9213220354046E-03
(PID.TID 0000.0001) %MON dynstat_uvel_min             =  -1.5762618853473E-02
(PID.TID 0000.0001) %MON dynstat_uvel_mean            =  -1.2266440975252E-09
(PID.TID 0000.0001) %MON dynstat_uvel_sd              =   4.1782051749747E-04
(PID.TID 0000.0001) %MON dynstat_uvel_del2            =   6.7370628281148E-07
(PID.TID 0000.0001) %MON dynstat_vvel_max             =   1.2048383205858E-02
(PID.TID 0000.0001) %MON dynstat_vvel_min             =  -4.3784432226595E-03
(PID.TID 0000.0001) %MON dynstat_vvel_mean            =   1.0208862690466E-07
(PID.TID 0000.0001) %MON dynstat_vvel_sd              =   2.3285591179579E-04
(PID.TID 0000.0001) %MON dynstat_vvel_del2            =   6.1261803200695E-07
(PID.TID 0000.0001) %MON dynstat_wvel_max             =   6.3459671078609E-04
(PID.TID 0000.0001) %MON dynstat_wvel_min             =  -6.5401292917926E-04
(PID.TID 0000.0001) %MON dynstat_wvel_mean            =   1.8434030351395E-10
(PID.TID 0000.0001) %MON dynstat_wvel_sd              =   1.2242691753452E-05
(PID.TID 0000.0001) %MON dynstat_wvel_del2            =   5.0320095270830E-08
(PID.TID 0000.0001) %MON dynstat_theta_max            =   1.2000000000000E+00
(PID.TID 0000.0001) %MON dynstat_theta_min            =  -1.0000000000000E+00
(PID.TID 0000.0001) %MON dynstat_theta_mean           =   5.6527740069827E-01
(PID.TID 0000.0001) %MON dynstat_theta_sd             =   8.4900209192796E-01
(PID.TID 0000.0001) %MON dynstat_theta_del2           =   1.7187429411056E-06
(PID.TID 0000.0001) %MON dynstat_salt_max             =   3.4700000000000E+01
(PID.TID 0000.0001) %MON dynstat_salt_min             =   3.4000000000000E+01
(PID.TID 0000.0001) %MON dynstat_salt_mean            =   3.4498024808693E+01
(PID.TID 0000.0001) %MON dynstat_salt_sd              =   2.7013610461448E-01
(PID.TID 0000.0001) %MON dynstat_salt_del2            =   6.7739050745790E-07
(PID.TID 0000.0001) %MON advcfl_uvel_max              =   1.5762618853473E-03
(PID.TID 0000.0001) %MON advcfl_vvel_max              =   1.2048383205858E-03
(PID.TID 0000.0001) %MON advcfl_wvel_max              =   3.2700646458963E-03
(PID.TID 0000.0001) %MON advcfl_W_hf_max              =   3.2700646458963E-03
(PID.TID 0000.0001) %MON pe_b_mean                    =  -6.8242909842789E-01
(PID.TID 0000.0001) %MON ke_max                       =   7.6096269686119E-05
(PID.TID 0000.0001) %MON ke_mean                      =   1.1275623909264E-07
(PID.TID 0000.0001) %MON ke_vol                       =   4.6182975995338E+12
(PID.TID 0000.0001) // =======================================================
(PID.TID 0000.0001) // End MONITOR dynamic field statistics
(PID.TID 0000.0001) // =======================================================
(PID.TID 0000.0001) // =======================================================
(PID.TID 0000.0001) // Begin OBCS MONITOR field statistics
(PID.TID 0000.0001) // =======================================================
(PID.TID 0000.0001) %MON obc_N_vVel_max               =   8.0870025106548E-08
(PID.TID 0000.0001) %MON obc_N_vVel_min               =   8.0870025106546E-08
(PID.TID 0000.0001) %MON obc_N_vVel_mean              =   8.0870025106548E-08
(PID.TID 0000.0001) %MON obc_N_vVel_sd                =  -2.4849118514462E-28
(PID.TID 0000.0001) %MON obc_N_vVel_Int               =   5.3374216570322E+00
(PID.TID 0000.0001) // =======================================================
(PID.TID 0000.0001) // End OBCS MONITOR field statistics
(PID.TID 0000.0001) // =======================================================
 cg2d: Sum(rhs),rhsMax =   3.01039676646877E+00  4.53046796890533E+02
(PID.TID 0000.0001)      cg2d_init_res =   2.08523833545083E-06
(PID.TID 0000.0001)      cg2d_iters(min,last) =      -1      73
(PID.TID 0000.0001)      cg2d_last_res =   8.78644085500541E-12
(PID.TID 0000.0001) // =======================================================
(PID.TID 0000.0001) // Begin MONITOR dynamic field statistics
(PID.TID 0000.0001) // =======================================================
(PID.TID 0000.0001) %MON time_tsnumber                =                   891
(PID.TID 0000.0001) %MON time_secondsf                =   8.9100000000000E+04
(PID.TID 0000.0001) %MON dynstat_eta_max              =   5.7979377266017E+00
(PID.TID 0000.0001) %MON dynstat_eta_min              =  -1.4173993056395E+01
(PID.TID 0000.0001) %MON dynstat_eta_mean             =  -2.5256492822561E+00
(PID.TID 0000.0001) %MON dynstat_eta_sd               =   4.9415354654913E+00
(PID.TID 0000.0001) %MON dynstat_eta_del2             =   1.9058322967366E-01
(PID.TID 0000.0001) %MON dynstat_uvel_max             =   3.9263314472837E-03
(PID.TID 0000.0001) %MON dynstat_uvel_min             =  -1.5802873076661E-02
(PID.TID 0000.0001) %MON dynstat_uvel_mean            =  -1.2117981505521E-09
(PID.TID 0000.0001) %MON dynstat_uvel_sd              =   4.1897577210274E-04
(PID.TID 0000.0001) %MON dynstat_uvel_del2            =   6.7529305956273E-07
(PID.TID 0000.0001) %MON dynstat_vvel_max             =   1.2078423947333E-02
(PID.TID 0000.0001) %MON dynstat_vvel_min             =  -4.3890581625767E-03
(PID.TID 0000.0001) %MON dynstat_vvel_mean            =   1.0534579400108E-07
(PID.TID 0000.0001) %MON dynstat_vvel_sd              =   2.3337618400505E-04
(PID.TID 0000.0001) %MON dynstat_vvel_del2            =   6.1392072456627E-07
(PID.TID 0000.0001) %MON dynstat_wvel_max             =   6.3638807108157E-04
(PID.TID 0000.0001) %MON dynstat_wvel_min             =  -6.5617629315640E-04
(PID.TID 0000.0001) %MON dynstat_wvel_mean            =   1.8154574680230E-10
(PID.TID 0000.0001) %MON dynstat_wvel_sd              =   1.2262025476690E-05
(PID.TID 0000.0001) %MON dynstat_wvel_del2            =   5.0439773755269E-08
(PID.TID 0000.0001) %MON dynstat_theta_max            =   1.2000000000000E+00
(PID.TID 0000.0001) %MON dynstat_theta_min            =  -1.0000000000000E+00
(PID.TID 0000.0001) %MON dynstat_theta_mean           =   5.6527697945892E-01
(PID.TID 0000.0001) %MON dynstat_theta_sd             =   8.4900192189297E-01
(PID.TID 0000.0001) %MON dynstat_theta_del2           =   1.7224119936623E-06
(PID.TID 0000.0001) %MON dynstat_salt_max             =   3.4700000000000E+01
(PID.TID 0000.0001) %MON dynstat_salt_min             =   3.4000000000000E+01
(PID.TID 0000.0001) %MON dynstat_salt_mean            =   3.4498024640853E+01
(PID.TID 0000.0001) %MON dynstat_salt_sd              =   2.7013604187722E-01
(PID.TID 0000.0001) %MON dynstat_salt_del2            =   6.7885301694780E-07
(PID.TID 0000.0001) %MON advcfl_uvel_max              =   1.5802873076661E-03
(PID.TID 0000.0001) %MON advcfl_vvel_max              =   1.2078423947333E-03
(PID.TID 0000.0001) %MON advcfl_wvel_max              =   3.2808814657820E-03
(PID.TID 0000.0001) %MON advcfl_W_hf_max              =   3.2808814657820E-03
(PID.TID 0000.0001) %MON pe_b_mean                    =  -6.8242802053834E-01
(PID.TID 0000.0001) %MON ke_max                       =   7.6483725640814E-05
(PID.TID 0000.0001) %MON ke_mean                      =   1.1335178959935E-07
(PID.TID 0000.0001) %MON ke_vol                       =   4.6182976213874E+12
(PID.TID 0000.0001) // =======================================================
(PID.TID 0000.0001) // End MONITOR dynamic field statistics
(PID.TID 0000.0001) // =======================================================
(PID.TID 0000.0001) // =======================================================
(PID.TID 0000.0001) // Begin OBCS MONITOR field statistics
(PID.TID 0000.0001) // =======================================================
(PID.TID 0000.0001) %MON obc_N_vVel_max               =   8.4165543936825E-08
(PID.TID 0000.0001) %MON obc_N_vVel_min               =   8.4165543936822E-08
(PID.TID 0000.0001) %MON obc_N_vVel_mean              =   8.4165543936822E-08
(PID.TID 0000.0001) %MON obc_N_vVel_sd                =   2.6107007145802E-14
(PID.TID 0000.0001) %MON obc_N_vVel_Int               =   5.5549258998303E+00
(PID.TID 0000.0001) // =======================================================
(PID.TID 0000.0001) // End OBCS MONITOR field statistics
(PID.TID 0000.0001) // =======================================================
 cg2d: Sum(rhs),rhsMax =   3.01039241007300E+00  4.53046791139128E+02
(PID.TID 0000.0001)      cg2d_init_res =   2.08963569139709E-06
(PID.TID 0000.0001)      cg2d_iters(min,last) =      -1      73
(PID.TID 0000.0001)      cg2d_last_res =   8.80779221088772E-12
(PID.TID 0000.0001) // =======================================================
(PID.TID 0000.0001) // Begin MONITOR dynamic field statistics
(PID.TID 0000.0001) // =======================================================
(PID.TID 0000.0001) %MON time_tsnumber                =                   892
(PID.TID 0000.0001) %MON time_secondsf                =   8.9200000000000E+04
(PID.TID 0000.0001) %MON dynstat_eta_max              =   5.7979402407296E+00
(PID.TID 0000.0001) %MON dynstat_eta_min              =  -1.4173986068479E+01
(PID.TID 0000.0001) %MON dynstat_eta_mean             =  -2.5256455952836E+00
(PID.TID 0000.0001) %MON dynstat_eta_sd               =   4.9415343722470E+00
(PID.TID 0000.0001) %MON dynstat_eta_del2             =   1.9058323920208E-01
(PID.TID 0000.0001) %MON dynstat_uvel_max             =   3.9313369228147E-03
(PID.TID 0000.0001) %MON dynstat_uvel_min             =  -1.5843196548557E-02
(PID.TID 0000.0001) %MON dynstat_uvel_mean            =  -1.1959177404319E-09
(PID.TID 0000.0001) %MON dynstat_uvel_sd              =   4.2013413989109E-04
(PID.TID 0000.0001) %MON dynstat_uvel_del2            =   6.7688422049581E-07
(PID.TID 0000.0001) %MON dynstat_vvel_max             =   1.2108510570178E-02
(PID.TID 0000.0001) %MON dynstat_vvel_min             =  -4.3996926364933E-03
(PID.TID 0000.0001) %MON dynstat_vvel_mean            =   1.0826382996573E-07
(PID.TID 0000.0001) %MON dynstat_vvel_sd              =   2.3389483352983E-04
(PID.TID 0000.0001) %MON dynstat_vvel_del2            =   6.1521440260815E-07
(PID.TID 0000.0001) %MON dynstat_wvel_max             =   6.3818303114718E-04
(PID.TID 0000.0001) %MON dynstat_wvel_min             =  -6.5834593713809E-04
(PID.TID 0000.0001) %MON dynstat_wvel_mean            =   1.7871154016890E-10
(PID.TID 0000.0001) %MON dynstat_wvel_sd              =   1.2274464573772E-05
(PID.TID 0000.0001) %MON dynstat_wvel_del2            =   5.0502622686020E-08
(PID.TID 0000.0001) %MON dynstat_theta_max            =   1.2000000000000E+00
(PID.TID 0000.0001) %MON dynstat_theta_min            =  -1.0000000000000E+00
(PID.TID 0000.0001) %MON dynstat_theta_mean           =   5.6527655742292E-01
(PID.TID 0000.0001) %MON dynstat_theta_sd             =   8.4900175142887E-01
(PID.TID 0000.0001) %MON dynstat_theta_del2           =   1.7261043217077E-06
(PID.TID 0000.0001) %MON dynstat_salt_max             =   3.4700000000000E+01
(PID.TID 0000.0001) %MON dynstat_salt_min             =   3.4000000000000E+01
(PID.TID 0000.0001) %MON dynstat_salt_mean            =   3.4498024472692E+01
(PID.TID 0000.0001) %MON dynstat_salt_sd              =   2.7013597897291E-01
(PID.TID 0000.0001) %MON dynstat_salt_del2            =   6.8032259302934E-07
(PID.TID 0000.0001) %MON advcfl_uvel_max              =   1.5843196548557E-03
(PID.TID 0000.0001) %MON advcfl_vvel_max              =   1.2108510570178E-03
(PID.TID 0000.0001) %MON advcfl_wvel_max              =   3.2917296856904E-03
(PID.TID 0000.0001) %MON advcfl_W_hf_max              =   3.2917296856904E-03
(PID.TID 0000.0001) %MON pe_b_mean                    =  -6.8242694096604E-01
(PID.TID 0000.0001) %MON ke_max                       =   7.6872821305275E-05
(PID.TID 0000.0001) %MON ke_mean                      =   1.1394982411689E-07
(PID.TID 0000.0001) %MON ke_vol                       =   4.6182976432634E+12
(PID.TID 0000.0001) // =======================================================
(PID.TID 0000.0001) // End MONITOR dynamic field statistics
(PID.TID 0000.0001) // =======================================================
(PID.TID 0000.0001) // =======================================================
(PID.TID 0000.0001) // Begin OBCS MONITOR field statistics
(PID.TID 0000.0001) // =======================================================
(PID.TID 0000.0001) %MON obc_N_vVel_max               =   8.7135436594532E-08
(PID.TID 0000.0001) %MON obc_N_vVel_min               =   8.7135436594531E-08
(PID.TID 0000.0001) %MON obc_N_vVel_mean              =   8.7135436594532E-08
(PID.TID 0000.0001) %MON obc_N_vVel_sd                =   1.3293037379377E-14
(PID.TID 0000.0001) %MON obc_N_vVel_Int               =   5.7509388152391E+00
(PID.TID 0000.0001) // =======================================================
(PID.TID 0000.0001) // End OBCS MONITOR field statistics
(PID.TID 0000.0001) // =======================================================
 cg2d: Sum(rhs),rhsMax =   3.01038804832410E+00  4.53046785376013E+02
(PID.TID 0000.0001)      cg2d_init_res =   2.09347631103402E-06
(PID.TID 0000.0001)      cg2d_iters(min,last) =      -1      73
(PID.TID 0000.0001)      cg2d_last_res =   8.82920093994971E-12
(PID.TID 0000.0001) // =======================================================
(PID.TID 0000.0001) // Begin MONITOR dynamic field statistics
(PID.TID 0000.0001) // =======================================================
(PID.TID 0000.0001) %MON time_tsnumber                =                   893
(PID.TID 0000.0001) %MON time_secondsf                =   8.9300000000000E+04
(PID.TID 0000.0001) %MON dynstat_eta_max              =   5.7979427487123E+00
(PID.TID 0000.0001) %MON dynstat_eta_min              =  -1.4173979061104E+01
(PID.TID 0000.0001) %MON dynstat_eta_mean             =  -2.5256419037548E+00
(PID.TID 0000.0001) %MON dynstat_eta_sd               =   4.9415332775957E+00
(PID.TID 0000.0001) %MON dynstat_eta_del2             =   1.9058324875822E-01
(PID.TID 0000.0001) %MON dynstat_uvel_max             =   3.9363384192495E-03
(PID.TID 0000.0001) %MON dynstat_uvel_min             =  -1.5883589222758E-02
(PID.TID 0000.0001) %MON dynstat_uvel_mean            =  -1.1789254286753E-09
(PID.TID 0000.0001) %MON dynstat_uvel_sd              =   4.2129561595100E-04
(PID.TID 0000.0001) %MON dynstat_uvel_del2            =   6.7847977069805E-07
(PID.TID 0000.0001) %MON dynstat_vvel_max             =   1.2138643026441E-02
(PID.TID 0000.0001) %MON dynstat_vvel_min             =  -4.4103466887924E-03
(PID.TID 0000.0001) %MON dynstat_vvel_mean            =   1.1081395894133E-07
(PID.TID 0000.0001) %MON dynstat_vvel_sd              =   2.3441198962393E-04
(PID.TID 0000.0001) %MON dynstat_vvel_del2            =   6.1649999352471E-07
(PID.TID 0000.0001) %MON dynstat_wvel_max             =   6.3998159417866E-04
(PID.TID 0000.0001) %MON dynstat_wvel_min             =  -6.6052187492011E-04
(PID.TID 0000.0001) %MON dynstat_wvel_mean            =   1.7584904945312E-10
(PID.TID 0000.0001) %MON dynstat_wvel_sd              =   1.2280325859831E-05
(PID.TID 0000.0001) %MON dynstat_wvel_del2            =   5.0512183585251E-08
(PID.TID 0000.0001) %MON dynstat_theta_max            =   1.2000000000000E+00
(PID.TID 0000.0001) %MON dynstat_theta_min            =  -1.0000000000000E+00
(PID.TID 0000.0001) %MON dynstat_theta_mean           =   5.6527613458926E-01
(PID.TID 0000.0001) %MON dynstat_theta_sd             =   8.4900158054111E-01
(PID.TID 0000.0001) %MON dynstat_theta_del2           =   1.7298188230319E-06
(PID.TID 0000.0001) %MON dynstat_salt_max             =   3.4700000000000E+01
(PID.TID 0000.0001) %MON dynstat_salt_min             =   3.4000000000000E+01
(PID.TID 0000.0001) %MON dynstat_salt_mean            =   3.4498024304209E+01
(PID.TID 0000.0001) %MON dynstat_salt_sd              =   2.7013591590318E-01
(PID.TID 0000.0001) %MON dynstat_salt_del2            =   6.8179896673392E-07
(PID.TID 0000.0001) %MON advcfl_uvel_max              =   1.5883589222758E-03
(PID.TID 0000.0001) %MON advcfl_vvel_max              =   1.2138643026441E-03
(PID.TID 0000.0001) %MON advcfl_wvel_max              =   3.3026093746006E-03
(PID.TID 0000.0001) %MON advcfl_W_hf_max              =   3.3026093746006E-03
(PID.TID 0000.0001) %MON pe_b_mean                    =  -6.8242585962383E-01
(PID.TID 0000.0001) %MON ke_max                       =   7.7263561101766E-05
(PID.TID 0000.0001) %MON ke_mean                      =   1.1455037899691E-07
(PID.TID 0000.0001) %MON ke_vol                       =   4.6182976651640E+12
(PID.TID 0000.0001) // =======================================================
(PID.TID 0000.0001) // End MONITOR dynamic field statistics
(PID.TID 0000.0001) // =======================================================
(PID.TID 0000.0001) // =======================================================
(PID.TID 0000.0001) // Begin OBCS MONITOR field statistics
(PID.TID 0000.0001) // =======================================================
(PID.TID 0000.0001) %MON obc_N_vVel_max               =   8.9751372046852E-08
(PID.TID 0000.0001) %MON obc_N_vVel_min               =   8.9751372046850E-08
(PID.TID 0000.0001) %MON obc_N_vVel_mean              =   8.9751372046852E-08
(PID.TID 0000.0001) %MON obc_N_vVel_sd                =  -5.1907047563543E-28
(PID.TID 0000.0001) %MON obc_N_vVel_Int               =   5.9235905550922E+00
(PID.TID 0000.0001) // =======================================================
(PID.TID 0000.0001) // End OBCS MONITOR field statistics
(PID.TID 0000.0001) // =======================================================
 cg2d: Sum(rhs),rhsMax =   3.01038368071480E+00  4.53046779598112E+02
(PID.TID 0000.0001)      cg2d_init_res =   2.09681972683714E-06
(PID.TID 0000.0001)      cg2d_iters(min,last) =      -1      73
(PID.TID 0000.0001)      cg2d_last_res =   8.85065358964591E-12
(PID.TID 0000.0001) // =======================================================
(PID.TID 0000.0001) // Begin MONITOR dynamic field statistics
(PID.TID 0000.0001) // =======================================================
(PID.TID 0000.0001) %MON time_tsnumber                =                   894
(PID.TID 0000.0001) %MON time_secondsf                =   8.9400000000000E+04
(PID.TID 0000.0001) %MON dynstat_eta_max              =   5.7979452512599E+00
(PID.TID 0000.0001) %MON dynstat_eta_min              =  -1.4173972033496E+01
(PID.TID 0000.0001) %MON dynstat_eta_mean             =  -2.5256382072269E+00
(PID.TID 0000.0001) %MON dynstat_eta_sd               =   4.9415321813713E+00
(PID.TID 0000.0001) %MON dynstat_eta_del2             =   1.9058325834195E-01
(PID.TID 0000.0001) %MON dynstat_uvel_max             =   3.9413358938525E-03
(PID.TID 0000.0001) %MON dynstat_uvel_min             =  -1.5924051052002E-02
(PID.TID 0000.0001) %MON dynstat_uvel_mean            =  -1.1607541526902E-09
(PID.TID 0000.0001) %MON dynstat_uvel_sd              =   4.2246019506465E-04
(PID.TID 0000.0001) %MON dynstat_uvel_del2            =   6.8007971395071E-07
(PID.TID 0000.0001) %MON dynstat_vvel_max             =   1.2168821267668E-02
(PID.TID 0000.0001) %MON dynstat_vvel_min             =  -4.4210203637940E-03
(PID.TID 0000.0001) %MON dynstat_vvel_mean            =   1.1296795064713E-07
(PID.TID 0000.0001) %MON dynstat_vvel_sd              =   2.3492788417387E-04
(PID.TID 0000.0001) %MON dynstat_vvel_del2            =   6.1777956446347E-07
(PID.TID 0000.0001) %MON dynstat_wvel_max             =   6.4178376331161E-04
(PID.TID 0000.0001) %MON dynstat_wvel_min             =  -6.6270412024116E-04
(PID.TID 0000.0001) %MON dynstat_wvel_mean            =   1.7296870869514E-10
(PID.TID 0000.0001) %MON dynstat_wvel_sd              =   1.2280458022868E-05
(PID.TID 0000.0001) %MON dynstat_wvel_del2            =   5.0477117390876E-08
(PID.TID 0000.0001) %MON dynstat_theta_max            =   1.2000000000000E+00
(PID.TID 0000.0001) %MON dynstat_theta_min            =  -1.0000000000000E+00
(PID.TID 0000.0001) %MON dynstat_theta_mean           =   5.6527571095617E-01
(PID.TID 0000.0001) %MON dynstat_theta_sd             =   8.4900140923194E-01
(PID.TID 0000.0001) %MON dynstat_theta_del2           =   1.7335531905762E-06
(PID.TID 0000.0001) %MON dynstat_salt_max             =   3.4700000000000E+01
(PID.TID 0000.0001) %MON dynstat_salt_min             =   3.4000000000000E+01
(PID.TID 0000.0001) %MON dynstat_salt_mean            =   3.4498024135403E+01
(PID.TID 0000.0001) %MON dynstat_salt_sd              =   2.7013585266872E-01
(PID.TID 0000.0001) %MON dynstat_salt_del2            =   6.8328166096144E-07
(PID.TID 0000.0001) %MON advcfl_uvel_max              =   1.5924051052002E-03
(PID.TID 0000.0001) %MON advcfl_vvel_max              =   1.2168821267668E-03
(PID.TID 0000.0001) %MON advcfl_wvel_max              =   3.3135206012058E-03
(PID.TID 0000.0001) %MON advcfl_W_hf_max              =   3.3135206012058E-03
(PID.TID 0000.0001) %MON pe_b_mean                    =  -6.8242477641846E-01
(PID.TID 0000.0001) %MON ke_max                       =   7.7655949447930E-05
(PID.TID 0000.0001) %MON ke_mean                      =   1.1515351485527E-07
(PID.TID 0000.0001) %MON ke_vol                       =   4.6182976870917E+12
(PID.TID 0000.0001) // =======================================================
(PID.TID 0000.0001) // End MONITOR dynamic field statistics
(PID.TID 0000.0001) // =======================================================
(PID.TID 0000.0001) // =======================================================
(PID.TID 0000.0001) // Begin OBCS MONITOR field statistics
(PID.TID 0000.0001) // =======================================================
(PID.TID 0000.0001) %MON obc_N_vVel_max               =   9.1985639547164E-08
(PID.TID 0000.0001) %MON obc_N_vVel_min               =   9.1985639547161E-08
(PID.TID 0000.0001) %MON obc_N_vVel_mean              =   9.1985639547161E-08
(PID.TID 0000.0001) %MON obc_N_vVel_sd                =   2.0018524916993E-14
(PID.TID 0000.0001) %MON obc_N_vVel_Int               =   6.0710522101126E+00
(PID.TID 0000.0001) // =======================================================
(PID.TID 0000.0001) // End OBCS MONITOR field statistics
(PID.TID 0000.0001) // =======================================================
 cg2d: Sum(rhs),rhsMax =   3.01037930670282E+00  4.53046773802206E+02
(PID.TID 0000.0001)      cg2d_init_res =   2.09978126899030E-06
(PID.TID 0000.0001)      cg2d_iters(min,last) =      -1      73
(PID.TID 0000.0001)      cg2d_last_res =   8.87201631267027E-12
(PID.TID 0000.0001) // =======================================================
(PID.TID 0000.0001) // Begin MONITOR dynamic field statistics
(PID.TID 0000.0001) // =======================================================
(PID.TID 0000.0001) %MON time_tsnumber                =                   895
(PID.TID 0000.0001) %MON time_secondsf                =   8.9500000000000E+04
(PID.TID 0000.0001) %MON dynstat_eta_max              =   5.7979477491230E+00
(PID.TID 0000.0001) %MON dynstat_eta_min              =  -1.4173964984819E+01
(PID.TID 0000.0001) %MON dynstat_eta_mean             =  -2.5256345052271E+00
(PID.TID 0000.0001) %MON dynstat_eta_sd               =   4.9415310833962E+00
(PID.TID 0000.0001) %MON dynstat_eta_del2             =   1.9058326795296E-01
(PID.TID 0000.0001) %MON dynstat_uvel_max             =   3.9463293038970E-03
(PID.TID 0000.0001) %MON dynstat_uvel_min             =  -1.5964581988325E-02
(PID.TID 0000.0001) %MON dynstat_uvel_mean            =  -1.1413514191450E-09
(PID.TID 0000.0001) %MON dynstat_uvel_sd              =   4.2362787174734E-04
(PID.TID 0000.0001) %MON dynstat_uvel_del2            =   6.8168405466271E-07
(PID.TID 0000.0001) %MON dynstat_vvel_max             =   1.2199045245121E-02
(PID.TID 0000.0001) %MON dynstat_vvel_min             =  -4.4317137054950E-03
(PID.TID 0000.0001) %MON dynstat_vvel_mean            =   1.1469834818584E-07
(PID.TID 0000.0001) %MON dynstat_vvel_sd              =   2.3544283689750E-04
(PID.TID 0000.0001) %MON dynstat_vvel_del2            =   6.1905608551742E-07
(PID.TID 0000.0001) %MON dynstat_wvel_max             =   6.4358954168839E-04
(PID.TID 0000.0001) %MON dynstat_wvel_min             =  -6.6489268641700E-04
(PID.TID 0000.0001) %MON dynstat_wvel_mean            =   1.7008118549836E-10
(PID.TID 0000.0001) %MON dynstat_wvel_sd              =   1.2276148242529E-05
(PID.TID 0000.0001) %MON dynstat_wvel_del2            =   5.0410314225066E-08
(PID.TID 0000.0001) %MON dynstat_theta_max            =   1.2000000000000E+00
(PID.TID 0000.0001) %MON dynstat_theta_min            =  -1.0000000000000E+00
(PID.TID 0000.0001) %MON dynstat_theta_mean           =   5.6527528652119E-01
(PID.TID 0000.0001) %MON dynstat_theta_sd             =   8.4900123750230E-01
(PID.TID 0000.0001) %MON dynstat_theta_del2           =   1.7373042013945E-06
(PID.TID 0000.0001) %MON dynstat_salt_max             =   3.4700000000000E+01
(PID.TID 0000.0001) %MON dynstat_salt_min             =   3.4000000000000E+01
(PID.TID 0000.0001) %MON dynstat_salt_mean            =   3.4498023966274E+01
(PID.TID 0000.0001) %MON dynstat_salt_sd              =   2.7013578926979E-01
(PID.TID 0000.0001) %MON dynstat_salt_del2            =   6.8476986318741E-07
(PID.TID 0000.0001) %MON advcfl_uvel_max              =   1.5964581988325E-03
(PID.TID 0000.0001) %MON advcfl_vvel_max              =   1.2199045245121E-03
(PID.TID 0000.0001) %MON advcfl_wvel_max              =   3.3244634320850E-03
(PID.TID 0000.0001) %MON advcfl_W_hf_max              =   3.3244634320850E-03
(PID.TID 0000.0001) %MON pe_b_mean                    =  -6.8242369125051E-01
(PID.TID 0000.0001) %MON ke_max                       =   7.8049990756975E-05
(PID.TID 0000.0001) %MON ke_mean                      =   1.1575931336433E-07
(PID.TID 0000.0001) %MON ke_vol                       =   4.6182977090491E+12
(PID.TID 0000.0001) // =======================================================
(PID.TID 0000.0001) // End MONITOR dynamic field statistics
(PID.TID 0000.0001) // =======================================================
(PID.TID 0000.0001) // =======================================================
(PID.TID 0000.0001) // Begin OBCS MONITOR field statistics
(PID.TID 0000.0001) // =======================================================
(PID.TID 0000.0001) %MON obc_N_vVel_max               =   9.3811247862341E-08
(PID.TID 0000.0001) %MON obc_N_vVel_min               =   9.3811247862341E-08
(PID.TID 0000.0001) %MON obc_N_vVel_mean              =   9.3811247862341E-08
(PID.TID 0000.0001) %MON obc_N_vVel_sd                =  -6.1531150607239E-29
(PID.TID 0000.0001) %MON obc_N_vVel_Int               =   6.1915423589145E+00
(PID.TID 0000.0001) // =======================================================
(PID.TID 0000.0001) // End OBCS MONITOR field statistics
(PID.TID 0000.0001) // =======================================================
 cg2d: Sum(rhs),rhsMax =   3.01037492571009E+00  4.53046767985177E+02
(PID.TID 0000.0001)      cg2d_init_res =   2.10250369827659E-06
(PID.TID 0000.0001)      cg2d_iters(min,last) =      -1      73
(PID.TID 0000.0001)      cg2d_last_res =   8.89331597234676E-12
(PID.TID 0000.0001) // =======================================================
(PID.TID 0000.0001) // Begin MONITOR dynamic field statistics
(PID.TID 0000.0001) // =======================================================
(PID.TID 0000.0001) %MON time_tsnumber                =                   896
(PID.TID 0000.0001) %MON time_secondsf                =   8.9600000000000E+04
(PID.TID 0000.0001) %MON dynstat_eta_max              =   5.7979502431109E+00
(PID.TID 0000.0001) %MON dynstat_eta_min              =  -1.4173957914183E+01
(PID.TID 0000.0001) %MON dynstat_eta_mean             =  -2.5256307972529E+00
(PID.TID 0000.0001) %MON dynstat_eta_sd               =   4.9415299834853E+00
(PID.TID 0000.0001) %MON dynstat_eta_del2             =   1.9058327759115E-01
(PID.TID 0000.0001) %MON dynstat_uvel_max             =   3.9513186067879E-03
(PID.TID 0000.0001) %MON dynstat_uvel_min             =  -1.6005181979093E-02
(PID.TID 0000.0001) %MON dynstat_uvel_mean            =  -1.1206987569722E-09
(PID.TID 0000.0001) %MON dynstat_uvel_sd              =   4.2479864032947E-04
(PID.TID 0000.0001) %MON dynstat_uvel_del2            =   6.8329279672663E-07
(PID.TID 0000.0001) %MON dynstat_vvel_max             =   1.2229314909691E-02
(PID.TID 0000.0001) %MON dynstat_vvel_min             =  -4.4424267574223E-03
(PID.TID 0000.0001) %MON dynstat_vvel_mean            =   1.1597871415473E-07
(PID.TID 0000.0001) %MON dynstat_vvel_sd              =   2.3595723412730E-04
(PID.TID 0000.0001) %MON dynstat_vvel_del2            =   6.2033310739893E-07
(PID.TID 0000.0001) %MON dynstat_wvel_max             =   6.4539893239618E-04
(PID.TID 0000.0001) %MON dynstat_wvel_min             =  -6.6708758653068E-04
(PID.TID 0000.0001) %MON dynstat_wvel_mean            =   1.6719863302106E-10
(PID.TID 0000.0001) %MON dynstat_wvel_sd              =   1.2268990128690E-05
(PID.TID 0000.0001) %MON dynstat_wvel_del2            =   5.0327616561368E-08
(PID.TID 0000.0001) %MON dynstat_theta_max            =   1.2000000000000E+00
(PID.TID 0000.0001) %MON dynstat_theta_min            =  -1.0000000000000E+00
(PID.TID 0000.0001) %MON dynstat_theta_mean           =   5.6527486128110E-01
(PID.TID 0000.0001) %MON dynstat_theta_sd             =   8.4900106535443E-01
(PID.TID 0000.0001) %MON dynstat_theta_del2           =   1.7410680850266E-06
(PID.TID 0000.0001) %MON dynstat_salt_max             =   3.4700000000000E+01
(PID.TID 0000.0001) %MON dynstat_salt_min             =   3.4000000000000E+01
(PID.TID 0000.0001) %MON dynstat_salt_mean            =   3.4498023796820E+01
(PID.TID 0000.0001) %MON dynstat_salt_sd              =   2.7013572570712E-01
(PID.TID 0000.0001) %MON dynstat_salt_del2            =   6.8626227954265E-07
(PID.TID 0000.0001) %MON advcfl_uvel_max              =   1.6005181979093E-03
(PID.TID 0000.0001) %MON advcfl_vvel_max              =   1.2229314909691E-03
(PID.TID 0000.0001) %MON advcfl_wvel_max              =   3.3354379326534E-03
(PID.TID 0000.0001) %MON advcfl_W_hf_max              =   3.3354379326534E-03
(PID.TID 0000.0001) %MON pe_b_mean                    =  -6.8242260401495E-01
(PID.TID 0000.0001) %MON ke_max                       =   7.8455796834371E-05
(PID.TID 0000.0001) %MON ke_mean                      =   1.1636787250237E-07
(PID.TID 0000.0001) %MON ke_vol                       =   4.6182977310390E+12
(PID.TID 0000.0001) // =======================================================
(PID.TID 0000.0001) // End MONITOR dynamic field statistics
(PID.TID 0000.0001) // =======================================================
(PID.TID 0000.0001) // =======================================================
(PID.TID 0000.0001) // Begin OBCS MONITOR field statistics
(PID.TID 0000.0001) // =======================================================
(PID.TID 0000.0001) %MON obc_N_vVel_max               =   9.5202092837487E-08
(PID.TID 0000.0001) %MON obc_N_vVel_min               =   9.5202092837487E-08
(PID.TID 0000.0001) %MON obc_N_vVel_mean              =   9.5202092837487E-08
(PID.TID 0000.0001) %MON obc_N_vVel_sd                =  -2.4139143699763E-28
(PID.TID 0000.0001) %MON obc_N_vVel_Int               =   6.2833381272742E+00
(PID.TID 0000.0001) // =======================================================
(PID.TID 0000.0001) // End OBCS MONITOR field statistics
(PID.TID 0000.0001) // =======================================================
 cg2d: Sum(rhs),rhsMax =   3.01037053712469E+00  4.53046762143993E+02
(PID.TID 0000.0001)      cg2d_init_res =   2.10514769114936E-06
(PID.TID 0000.0001)      cg2d_iters(min,last) =      -1      73
(PID.TID 0000.0001)      cg2d_last_res =   8.91447247012172E-12
(PID.TID 0000.0001) // =======================================================
(PID.TID 0000.0001) // Begin MONITOR dynamic field statistics
(PID.TID 0000.0001) // =======================================================
(PID.TID 0000.0001) %MON time_tsnumber                =                   897
(PID.TID 0000.0001) %MON time_secondsf                =   8.9700000000000E+04
(PID.TID 0000.0001) %MON dynstat_eta_max              =   5.7979527340860E+00
(PID.TID 0000.0001) %MON dynstat_eta_min              =  -1.4173950820644E+01
(PID.TID 0000.0001) %MON dynstat_eta_mean             =  -2.5256270827741E+00
(PID.TID 0000.0001) %MON dynstat_eta_sd               =   4.9415288814462E+00
(PID.TID 0000.0001) %MON dynstat_eta_del2             =   1.9058328725623E-01
(PID.TID 0000.0001) %MON dynstat_uvel_max             =   3.9563037600079E-03
(PID.TID 0000.0001) %MON dynstat_uvel_min             =  -1.6045850975515E-02
(PID.TID 0000.0001) %MON dynstat_uvel_mean            =  -1.0988145220446E-09
(PID.TID 0000.0001) %MON dynstat_uvel_sd              =   4.2597249506615E-04
(PID.TID 0000.0001) %MON dynstat_uvel_del2            =   6.8490594273151E-07
(PID.TID 0000.0001) %MON dynstat_vvel_max             =   1.2259630212098E-02
(PID.TID 0000.0001) %MON dynstat_vvel_min             =  -4.4531595629174E-03
(PID.TID 0000.0001) %MON dynstat_vvel_mean            =   1.1678388536987E-07
(PID.TID 0000.0001) %MON dynstat_vvel_sd              =   2.3647150351977E-04
(PID.TID 0000.0001) %MON dynstat_vvel_del2            =   6.2161438726111E-07
(PID.TID 0000.0001) %MON dynstat_wvel_max             =   6.4721193850969E-04
(PID.TID 0000.0001) %MON dynstat_wvel_min             =  -6.6928883390056E-04
(PID.TID 0000.0001) %MON dynstat_wvel_mean            =   1.6433504964545E-10
(PID.TID 0000.0001) %MON dynstat_wvel_sd              =   1.2260725288703E-05
(PID.TID 0000.0001) %MON dynstat_wvel_del2            =   5.0246251072617E-08
(PID.TID 0000.0001) %MON dynstat_theta_max            =   1.2000000000000E+00
(PID.TID 0000.0001) %MON dynstat_theta_min            =  -1.0000000000000E+00
(PID.TID 0000.0001) %MON dynstat_theta_mean           =   5.6527443523204E-01
(PID.TID 0000.0001) %MON dynstat_theta_sd             =   8.4900089279334E-01
(PID.TID 0000.0001) %MON dynstat_theta_del2           =   1.7448409278411E-06
(PID.TID 0000.0001) %MON dynstat_salt_max             =   3.4700000000000E+01
(PID.TID 0000.0001) %MON dynstat_salt_min             =   3.4000000000000E+01
(PID.TID 0000.0001) %MON dynstat_salt_mean            =   3.4498023627041E+01
(PID.TID 0000.0001) %MON dynstat_salt_sd              =   2.7013566198208E-01
(PID.TID 0000.0001) %MON dynstat_salt_del2            =   6.8775815160976E-07
(PID.TID 0000.0001) %MON advcfl_uvel_max              =   1.6045850975515E-03
(PID.TID 0000.0001) %MON advcfl_vvel_max              =   1.2259630212098E-03
(PID.TID 0000.0001) %MON advcfl_wvel_max              =   3.3464441695028E-03
(PID.TID 0000.0001) %MON advcfl_W_hf_max              =   3.3464441695028E-03
(PID.TID 0000.0001) %MON pe_b_mean                    =  -6.8242151460174E-01
(PID.TID 0000.0001) %MON ke_max                       =   7.8979081430779E-05
(PID.TID 0000.0001) %MON ke_mean                      =   1.1697930078711E-07
(PID.TID 0000.0001) %MON ke_vol                       =   4.6182977530643E+12
(PID.TID 0000.0001) // =======================================================
(PID.TID 0000.0001) // End MONITOR dynamic field statistics
(PID.TID 0000.0001) // =======================================================
(PID.TID 0000.0001) // =======================================================
(PID.TID 0000.0001) // Begin OBCS MONITOR field statistics
(PID.TID 0000.0001) // =======================================================
(PID.TID 0000.0001) %MON obc_N_vVel_max               =   9.6133142516405E-08
(PID.TID 0000.0001) %MON obc_N_vVel_min               =   9.6133142516403E-08
(PID.TID 0000.0001) %MON obc_N_vVel_mean              =   9.6133142516403E-08
(PID.TID 0000.0001) %MON obc_N_vVel_sd                =   1.8882932218273E-14
(PID.TID 0000.0001) %MON obc_N_vVel_Int               =   6.3447874060826E+00
(PID.TID 0000.0001) // =======================================================
(PID.TID 0000.0001) // End OBCS MONITOR field statistics
(PID.TID 0000.0001) // =======================================================
 cg2d: Sum(rhs),rhsMax =   3.01036614030446E+00  4.53046756275678E+02
(PID.TID 0000.0001)      cg2d_init_res =   2.10792963214090E-06
(PID.TID 0000.0001)      cg2d_iters(min,last) =      -1      73
(PID.TID 0000.0001)      cg2d_last_res =   8.93543706765585E-12
(PID.TID 0000.0001) // =======================================================
(PID.TID 0000.0001) // Begin MONITOR dynamic field statistics
(PID.TID 0000.0001) // =======================================================
(PID.TID 0000.0001) %MON time_tsnumber                =                   898
(PID.TID 0000.0001) %MON time_secondsf                =   8.9800000000000E+04
(PID.TID 0000.0001) %MON dynstat_eta_max              =   5.7979552229590E+00
(PID.TID 0000.0001) %MON dynstat_eta_min              =  -1.4173943703209E+01
(PID.TID 0000.0001) %MON dynstat_eta_mean             =  -2.5256233612353E+00
(PID.TID 0000.0001) %MON dynstat_eta_sd               =   4.9415277770850E+00
(PID.TID 0000.0001) %MON dynstat_eta_del2             =   1.9058329694824E-01
(PID.TID 0000.0001) %MON dynstat_uvel_max             =   3.9612847212176E-03
(PID.TID 0000.0001) %MON dynstat_uvel_min             =  -1.6086588926923E-02
(PID.TID 0000.0001) %MON dynstat_uvel_mean            =  -1.0757489775255E-09
(PID.TID 0000.0001) %MON dynstat_uvel_sd              =   4.2714943017128E-04
(PID.TID 0000.0001) %MON dynstat_uvel_del2            =   6.8652349575799E-07
(PID.TID 0000.0001) %MON dynstat_vvel_max             =   1.2289991102887E-02
(PID.TID 0000.0001) %MON dynstat_vvel_min             =  -4.4639121653107E-03
(PID.TID 0000.0001) %MON dynstat_vvel_mean            =   1.1709020085327E-07
(PID.TID 0000.0001) %MON dynstat_vvel_sd              =   2.3698608725172E-04
(PID.TID 0000.0001) %MON dynstat_vvel_del2            =   6.2290350346054E-07
(PID.TID 0000.0001) %MON dynstat_wvel_max             =   6.4902856308610E-04
(PID.TID 0000.0001) %MON dynstat_wvel_min             =  -6.7149644187655E-04
(PID.TID 0000.0001) %MON dynstat_wvel_mean            =   1.6150658072300E-10
(PID.TID 0000.0001) %MON dynstat_wvel_sd              =   1.2253073492856E-05
(PID.TID 0000.0001) %MON dynstat_wvel_del2            =   5.0183100721908E-08
(PID.TID 0000.0001) %MON dynstat_theta_max            =   1.2000000000000E+00
(PID.TID 0000.0001) %MON dynstat_theta_min            =  -1.0000000000000E+00
(PID.TID 0000.0001) %MON dynstat_theta_mean           =   5.6527400836967E-01
(PID.TID 0000.0001) %MON dynstat_theta_sd             =   8.4900071982115E-01
(PID.TID 0000.0001) %MON dynstat_theta_del2           =   1.7486190856729E-06
(PID.TID 0000.0001) %MON dynstat_salt_max             =   3.4700000000000E+01
(PID.TID 0000.0001) %MON dynstat_salt_min             =   3.4000000000000E+01
(PID.TID 0000.0001) %MON dynstat_salt_mean            =   3.4498023456933E+01
(PID.TID 0000.0001) %MON dynstat_salt_sd              =   2.7013559809553E-01
(PID.TID 0000.0001) %MON dynstat_salt_del2            =   6.8925655880105E-07
(PID.TID 0000.0001) %MON advcfl_uvel_max              =   1.6086588926923E-03
(PID.TID 0000.0001) %MON advcfl_vvel_max              =   1.2289991102887E-03
(PID.TID 0000.0001) %MON advcfl_wvel_max              =   3.3574822093827E-03
(PID.TID 0000.0001) %MON advcfl_W_hf_max              =   3.3574822093827E-03
(PID.TID 0000.0001) %MON pe_b_mean                    =  -6.8242042289615E-01
(PID.TID 0000.0001) %MON ke_max                       =   7.9505474381739E-05
(PID.TID 0000.0001) %MON ke_mean                      =   1.1759371104248E-07
(PID.TID 0000.0001) %MON ke_vol                       =   4.6182977751283E+12
(PID.TID 0000.0001) // =======================================================
(PID.TID 0000.0001) // End MONITOR dynamic field statistics
(PID.TID 0000.0001) // =======================================================
(PID.TID 0000.0001) // =======================================================
(PID.TID 0000.0001) // Begin OBCS MONITOR field statistics
(PID.TID 0000.0001) // =======================================================
(PID.TID 0000.0001) %MON obc_N_vVel_max               =   9.6580574198273E-08
(PID.TID 0000.0001) %MON obc_N_vVel_min               =   9.6580574198271E-08
(PID.TID 0000.0001) %MON obc_N_vVel_mean              =   9.6580574198273E-08
(PID.TID 0000.0001) %MON obc_N_vVel_sd                =  -6.2635555874548E-28
(PID.TID 0000.0001) %MON obc_N_vVel_Int               =   6.3743178970860E+00
(PID.TID 0000.0001) // =======================================================
(PID.TID 0000.0001) // End OBCS MONITOR field statistics
(PID.TID 0000.0001) // =======================================================
 cg2d: Sum(rhs),rhsMax =   3.01036173457701E+00  4.53046750377678E+02
(PID.TID 0000.0001)      cg2d_init_res =   2.11101064733889E-06
(PID.TID 0000.0001)      cg2d_iters(min,last) =      -1      73
(PID.TID 0000.0001)      cg2d_last_res =   8.95630825510516E-12
(PID.TID 0000.0001) // =======================================================
(PID.TID 0000.0001) // Begin MONITOR dynamic field statistics
(PID.TID 0000.0001) // =======================================================
(PID.TID 0000.0001) %MON time_tsnumber                =                   899
(PID.TID 0000.0001) %MON time_secondsf                =   8.9900000000000E+04
(PID.TID 0000.0001) %MON dynstat_eta_max              =   5.7979577106937E+00
(PID.TID 0000.0001) %MON dynstat_eta_min              =  -1.4173936560864E+01
(PID.TID 0000.0001) %MON dynstat_eta_mean             =  -2.5256196320582E+00
(PID.TID 0000.0001) %MON dynstat_eta_sd               =   4.9415266701968E+00
(PID.TID 0000.0001) %MON dynstat_eta_del2             =   1.9058330666706E-01
(PID.TID 0000.0001) %MON dynstat_uvel_max             =   3.9662614481841E-03
(PID.TID 0000.0001) %MON dynstat_uvel_min             =  -1.6127395782382E-02
(PID.TID 0000.0001) %MON dynstat_uvel_mean            =  -1.0515817440463E-09
(PID.TID 0000.0001) %MON dynstat_uvel_sd              =   4.2832943989857E-04
(PID.TID 0000.0001) %MON dynstat_uvel_del2            =   6.8814545964856E-07
(PID.TID 0000.0001) %MON dynstat_vvel_max             =   1.2320397532344E-02
(PID.TID 0000.0001) %MON dynstat_vvel_min             =  -4.4746846074908E-03
(PID.TID 0000.0001) %MON dynstat_vvel_mean            =   1.1687576367128E-07
(PID.TID 0000.0001) %MON dynstat_vvel_sd              =   2.3750141613542E-04
(PID.TID 0000.0001) %MON dynstat_vvel_del2            =   6.2420349381178E-07
(PID.TID 0000.0001) %MON dynstat_wvel_max             =   6.5084880914223E-04
(PID.TID 0000.0001) %MON dynstat_wvel_min             =  -6.7371042389507E-04
(PID.TID 0000.0001) %MON dynstat_wvel_mean            =   1.5873137343289E-10
(PID.TID 0000.0001) %MON dynstat_wvel_sd              =   1.2247568076883E-05
(PID.TID 0000.0001) %MON dynstat_wvel_del2            =   5.0152981611136E-08
(PID.TID 0000.0001) %MON dynstat_theta_max            =   1.2000000000000E+00
(PID.TID 0000.0001) %MON dynstat_theta_min            =  -1.0000000000000E+00
(PID.TID 0000.0001) %MON dynstat_theta_mean           =   5.6527358068934E-01
(PID.TID 0000.0001) %MON dynstat_theta_sd             =   8.4900054643636E-01
(PID.TID 0000.0001) %MON dynstat_theta_del2           =   1.7523989850021E-06
(PID.TID 0000.0001) %MON dynstat_salt_max             =   3.4700000000000E+01
(PID.TID 0000.0001) %MON dynstat_salt_min             =   3.4000000000000E+01
(PID.TID 0000.0001) %MON dynstat_salt_mean            =   3.4498023286496E+01
(PID.TID 0000.0001) %MON dynstat_salt_sd              =   2.7013553404681E-01
(PID.TID 0000.0001) %MON dynstat_salt_del2            =   6.9075674928060E-07
(PID.TID 0000.0001) %MON advcfl_uvel_max              =   1.6127395782382E-03
(PID.TID 0000.0001) %MON advcfl_vvel_max              =   1.2320397532344E-03
(PID.TID 0000.0001) %MON advcfl_wvel_max              =   3.3685521194753E-03
(PID.TID 0000.0001) %MON advcfl_W_hf_max              =   3.3685521194753E-03
(PID.TID 0000.0001) %MON pe_b_mean                    =  -6.8241932877911E-01
(PID.TID 0000.0001) %MON ke_max                       =   8.0034990614693E-05
(PID.TID 0000.0001) %MON ke_mean                      =   1.1821121432255E-07
(PID.TID 0000.0001) %MON ke_vol                       =   4.6182977972343E+12
(PID.TID 0000.0001) // =======================================================
(PID.TID 0000.0001) // End MONITOR dynamic field statistics
(PID.TID 0000.0001) // =======================================================
(PID.TID 0000.0001) // =======================================================
(PID.TID 0000.0001) // Begin OBCS MONITOR field statistics
(PID.TID 0000.0001) // =======================================================
(PID.TID 0000.0001) %MON obc_N_vVel_max               =   9.6522123118269E-08
(PID.TID 0000.0001) %MON obc_N_vVel_min               =   9.6522123118266E-08
(PID.TID 0000.0001) %MON obc_N_vVel_mean              =   9.6522123118266E-08
(PID.TID 0000.0001) %MON obc_N_vVel_sd                =   2.0677587156866E-14
(PID.TID 0000.0001) %MON obc_N_vVel_Int               =   6.3704601258055E+00
(PID.TID 0000.0001) // =======================================================
(PID.TID 0000.0001) // End OBCS MONITOR field statistics
(PID.TID 0000.0001) // =======================================================
 cg2d: Sum(rhs),rhsMax =   3.01035731924014E+00  4.53046744447094E+02
(PID.TID 0000.0001)      cg2d_init_res =   2.11453460852912E-06
(PID.TID 0000.0001)      cg2d_iters(min,last) =      -1      73
(PID.TID 0000.0001)      cg2d_last_res =   8.97706681443824E-12
(PID.TID 0000.0001) // =======================================================
(PID.TID 0000.0001) // Begin MONITOR dynamic field statistics
(PID.TID 0000.0001) // =======================================================
(PID.TID 0000.0001) %MON time_tsnumber                =                   900
(PID.TID 0000.0001) %MON time_secondsf                =   9.0000000000000E+04
(PID.TID 0000.0001) %MON dynstat_eta_max              =   5.7979601982962E+00
(PID.TID 0000.0001) %MON dynstat_eta_min              =  -1.4173929392544E+01
(PID.TID 0000.0001) %MON dynstat_eta_mean             =  -2.5256158946375E+00
(PID.TID 0000.0001) %MON dynstat_eta_sd               =   4.9415255605729E+00
(PID.TID 0000.0001) %MON dynstat_eta_del2             =   1.9058331641271E-01
(PID.TID 0000.0001) %MON dynstat_uvel_max             =   3.9712338988789E-03
(PID.TID 0000.0001) %MON dynstat_uvel_min             =  -1.6168271490269E-02
(PID.TID 0000.0001) %MON dynstat_uvel_mean            =  -1.0264227206114E-09
(PID.TID 0000.0001) %MON dynstat_uvel_sd              =   4.2951251861695E-04
(PID.TID 0000.0001) %MON dynstat_uvel_del2            =   6.8977183934243E-07
(PID.TID 0000.0001) %MON dynstat_vvel_max             =   1.2350849450607E-02
(PID.TID 0000.0001) %MON dynstat_vvel_min             =  -4.4854769319089E-03
(PID.TID 0000.0001) %MON dynstat_vvel_mean            =   1.1612066721365E-07
(PID.TID 0000.0001) %MON dynstat_vvel_sd              =   2.3801788712078E-04
(PID.TID 0000.0001) %MON dynstat_vvel_del2            =   6.2551655585451E-07
(PID.TID 0000.0001) %MON dynstat_wvel_max             =   6.5267267967549E-04
(PID.TID 0000.0001) %MON dynstat_wvel_min             =  -6.7593079342845E-04
(PID.TID 0000.0001) %MON dynstat_wvel_mean            =   1.5602925638820E-10
(PID.TID 0000.0001) %MON dynstat_wvel_sd              =   1.2245413480218E-05
(PID.TID 0000.0001) %MON dynstat_wvel_del2            =   5.0167113594721E-08
(PID.TID 0000.0001) %MON dynstat_theta_max            =   1.2000000000000E+00
(PID.TID 0000.0001) %MON dynstat_theta_min            =  -1.0000000000000E+00
(PID.TID 0000.0001) %MON dynstat_theta_mean           =   5.6527315218546E-01
(PID.TID 0000.0001) %MON dynstat_theta_sd             =   8.4900037263368E-01
(PID.TID 0000.0001) %MON dynstat_theta_del2           =   1.7561791619440E-06
(PID.TID 0000.0001) %MON dynstat_salt_max             =   3.4700000000000E+01
(PID.TID 0000.0001) %MON dynstat_salt_min             =   3.4000000000000E+01
(PID.TID 0000.0001) %MON dynstat_salt_mean            =   3.4498023115728E+01
(PID.TID 0000.0001) %MON dynstat_salt_sd              =   2.7013546983430E-01
(PID.TID 0000.0001) %MON dynstat_salt_del2            =   6.9225821486738E-07
(PID.TID 0000.0001) %MON advcfl_uvel_max              =   1.6168271490269E-03
(PID.TID 0000.0001) %MON advcfl_vvel_max              =   1.2350849450607E-03
(PID.TID 0000.0001) %MON advcfl_wvel_max              =   3.3796539671422E-03
(PID.TID 0000.0001) %MON advcfl_W_hf_max              =   3.3796539671422E-03
(PID.TID 0000.0001) %MON pe_b_mean                    =  -6.8241823212659E-01
(PID.TID 0000.0001) %MON ke_max                       =   8.0567645116689E-05
(PID.TID 0000.0001) %MON ke_mean                      =   1.1883191456179E-07
(PID.TID 0000.0001) %MON ke_vol                       =   4.6182978193856E+12
(PID.TID 0000.0001) // =======================================================
(PID.TID 0000.0001) // End MONITOR dynamic field statistics
(PID.TID 0000.0001) // =======================================================
(PID.TID 0000.0001) // =======================================================
(PID.TID 0000.0001) // Begin OBCS MONITOR field statistics
(PID.TID 0000.0001) // =======================================================
(PID.TID 0000.0001) %MON obc_N_vVel_max               =   9.5937259657066E-08
(PID.TID 0000.0001) %MON obc_N_vVel_min               =   9.5937259657064E-08
(PID.TID 0000.0001) %MON obc_N_vVel_mean              =   9.5937259657064E-08
(PID.TID 0000.0001) %MON obc_N_vVel_sd                =   1.5888218580783E-14
(PID.TID 0000.0001) %MON obc_N_vVel_Int               =   6.3318591373663E+00
(PID.TID 0000.0001) // =======================================================
(PID.TID 0000.0001) // End OBCS MONITOR field statistics
(PID.TID 0000.0001) // =======================================================
 cg2d: Sum(rhs),rhsMax =   3.01035289356620E+00  4.53046738481532E+02
(PID.TID 0000.0001)      cg2d_init_res =   2.11859664056789E-06
(PID.TID 0000.0001)      cg2d_iters(min,last) =      -1      73
(PID.TID 0000.0001)      cg2d_last_res =   8.99778654575504E-12
(PID.TID 0000.0001) // =======================================================
(PID.TID 0000.0001) // Begin MONITOR dynamic field statistics
(PID.TID 0000.0001) // =======================================================
(PID.TID 0000.0001) %MON time_tsnumber                =                   901
(PID.TID 0000.0001) %MON time_secondsf                =   9.0100000000000E+04
(PID.TID 0000.0001) %MON dynstat_eta_max              =   5.7979626868142E+00
(PID.TID 0000.0001) %MON dynstat_eta_min              =  -1.4173922197143E+01
(PID.TID 0000.0001) %MON dynstat_eta_mean             =  -2.5256121483493E+00
(PID.TID 0000.0001) %MON dynstat_eta_sd               =   4.9415244479952E+00
(PID.TID 0000.0001) %MON dynstat_eta_del2             =   1.9058332618493E-01
(PID.TID 0000.0001) %MON dynstat_uvel_max             =   3.9762020314811E-03
(PID.TID 0000.0001) %MON dynstat_uvel_min             =  -1.6209215999927E-02
(PID.TID 0000.0001) %MON dynstat_uvel_mean            =  -1.0004011120798E-09
(PID.TID 0000.0001) %MON dynstat_uvel_sd              =   4.3069866089035E-04
(PID.TID 0000.0001) %MON dynstat_uvel_del2            =   6.9140264110327E-07
(PID.TID 0000.0001) %MON dynstat_vvel_max             =   1.2381346807609E-02
(PID.TID 0000.0001) %MON dynstat_vvel_min             =  -4.4962891806026E-03
(PID.TID 0000.0001) %MON dynstat_vvel_mean            =   1.1480721659538E-07
(PID.TID 0000.0001) %MON dynstat_vvel_sd              =   2.3853584613358E-04
(PID.TID 0000.0001) %MON dynstat_vvel_del2            =   6.2684383671436E-07
(PID.TID 0000.0001) %MON dynstat_wvel_max             =   6.5450017764880E-04
(PID.TID 0000.0001) %MON dynstat_wvel_min             =  -6.7815756400464E-04
(PID.TID 0000.0001) %MON dynstat_wvel_mean            =   1.5342201408571E-10
(PID.TID 0000.0001) %MON dynstat_wvel_sd              =   1.2247379935920E-05
(PID.TID 0000.0001) %MON dynstat_wvel_del2            =   5.0231968951534E-08
(PID.TID 0000.0001) %MON dynstat_theta_max            =   1.2000000000000E+00
(PID.TID 0000.0001) %MON dynstat_theta_min            =  -1.0000000000000E+00
(PID.TID 0000.0001) %MON dynstat_theta_mean           =   5.6527272285228E-01
(PID.TID 0000.0001) %MON dynstat_theta_sd             =   8.4900019840858E-01
(PID.TID 0000.0001) %MON dynstat_theta_del2           =   1.7599587129737E-06
(PID.TID 0000.0001) %MON dynstat_salt_max             =   3.4700000000000E+01
(PID.TID 0000.0001) %MON dynstat_salt_min             =   3.4000000000000E+01
(PID.TID 0000.0001) %MON dynstat_salt_mean            =   3.4498022944626E+01
(PID.TID 0000.0001) %MON dynstat_salt_sd              =   2.7013540545663E-01
(PID.TID 0000.0001) %MON dynstat_salt_del2            =   6.9376074041307E-07
(PID.TID 0000.0001) %MON advcfl_uvel_max              =   1.6209215999927E-03
(PID.TID 0000.0001) %MON advcfl_vvel_max              =   1.2381346807609E-03
(PID.TID 0000.0001) %MON advcfl_wvel_max              =   3.3907878200232E-03
(PID.TID 0000.0001) %MON advcfl_W_hf_max              =   3.3907878200232E-03
(PID.TID 0000.0001) %MON pe_b_mean                    =  -6.8241713281115E-01
(PID.TID 0000.0001) %MON ke_max                       =   8.1103452925659E-05
(PID.TID 0000.0001) %MON ke_mean                      =   1.1945590443234E-07
(PID.TID 0000.0001) %MON ke_vol                       =   4.6182978415859E+12
(PID.TID 0000.0001) // =======================================================
(PID.TID 0000.0001) // End MONITOR dynamic field statistics
(PID.TID 0000.0001) // =======================================================
(PID.TID 0000.0001) // =======================================================
(PID.TID 0000.0001) // Begin OBCS MONITOR field statistics
(PID.TID 0000.0001) // =======================================================
(PID.TID 0000.0001) %MON obc_N_vVel_max               =   9.4807413118362E-08
(PID.TID 0000.0001) %MON obc_N_vVel_min               =   9.4807413118360E-08
(PID.TID 0000.0001) %MON obc_N_vVel_mean              =   9.4807413118360E-08
(PID.TID 0000.0001) %MON obc_N_vVel_sd                =   1.8331796028326E-14
(PID.TID 0000.0001) %MON obc_N_vVel_Int               =   6.2572892658118E+00
(PID.TID 0000.0001) // =======================================================
(PID.TID 0000.0001) // End OBCS MONITOR field statistics
(PID.TID 0000.0001) // =======================================================
 cg2d: Sum(rhs),rhsMax =   3.01034845761497E+00  4.53046732356631E+02
(PID.TID 0000.0001)      cg2d_init_res =   2.12325062622896E-06
(PID.TID 0000.0001)      cg2d_iters(min,last) =      -1      73
(PID.TID 0000.0001)      cg2d_last_res =   9.01851280055604E-12
(PID.TID 0000.0001) // =======================================================
(PID.TID 0000.0001) // Begin MONITOR dynamic field statistics
(PID.TID 0000.0001) // =======================================================
(PID.TID 0000.0001) %MON time_tsnumber                =                   902
(PID.TID 0000.0001) %MON time_secondsf                =   9.0200000000000E+04
(PID.TID 0000.0001) %MON dynstat_eta_max              =   5.7979651773333E+00
(PID.TID 0000.0001) %MON dynstat_eta_min              =  -1.4173914973549E+01
(PID.TID 0000.0001) %MON dynstat_eta_mean             =  -2.5256083925505E+00
(PID.TID 0000.0001) %MON dynstat_eta_sd               =   4.9415233322418E+00
(PID.TID 0000.0001) %MON dynstat_eta_del2             =   1.9058333598329E-01
(PID.TID 0000.0001) %MON dynstat_uvel_max             =   3.9811658041877E-03
(PID.TID 0000.0001) %MON dynstat_uvel_min             =  -1.6250229258708E-02
(PID.TID 0000.0001) %MON dynstat_uvel_mean            =  -9.7366370206833E-10
(PID.TID 0000.0001) %MON dynstat_uvel_sd              =   4.3188786154283E-04
(PID.TID 0000.0001) %MON dynstat_uvel_del2            =   6.9303787255637E-07
(PID.TID 0000.0001) %MON dynstat_vvel_max             =   1.2411889553133E-02
(PID.TID 0000.0001) %MON dynstat_vvel_min             =  -4.5071213953722E-03
(PID.TID 0000.0001) %MON dynstat_vvel_mean            =   1.1292015603180E-07
(PID.TID 0000.0001) %MON dynstat_vvel_sd              =   2.3905557760548E-04
(PID.TID 0000.0001) %MON dynstat_vvel_del2            =   6.2818533305313E-07
(PID.TID 0000.0001) %MON dynstat_wvel_max             =   6.5633130601615E-04
(PID.TID 0000.0001) %MON dynstat_wvel_min             =  -6.8039074915903E-04
(PID.TID 0000.0001) %MON dynstat_wvel_mean            =   1.5093262120361E-10
(PID.TID 0000.0001) %MON dynstat_wvel_sd              =   1.2253746600853E-05
(PID.TID 0000.0001) %MON dynstat_wvel_del2            =   5.0348648181416E-08
(PID.TID 0000.0001) %MON dynstat_theta_max            =   1.2000000000000E+00
(PID.TID 0000.0001) %MON dynstat_theta_min            =  -1.0000000000000E+00
(PID.TID 0000.0001) %MON dynstat_theta_mean           =   5.6527229268364E-01
(PID.TID 0000.0001) %MON dynstat_theta_sd             =   8.4900002375752E-01
(PID.TID 0000.0001) %MON dynstat_theta_del2           =   1.7637379566716E-06
(PID.TID 0000.0001) %MON dynstat_salt_max             =   3.4700000000000E+01
(PID.TID 0000.0001) %MON dynstat_salt_min             =   3.4000000000000E+01
(PID.TID 0000.0001) %MON dynstat_salt_mean            =   3.4498022773190E+01
(PID.TID 0000.0001) %MON dynstat_salt_sd              =   2.7013534091247E-01
(PID.TID 0000.0001) %MON dynstat_salt_del2            =   6.9526442771602E-07
(PID.TID 0000.0001) %MON advcfl_uvel_max              =   1.6250229258708E-03
(PID.TID 0000.0001) %MON advcfl_vvel_max              =   1.2411889553133E-03
(PID.TID 0000.0001) %MON advcfl_wvel_max              =   3.4019537457951E-03
(PID.TID 0000.0001) %MON advcfl_W_hf_max              =   3.4019537457951E-03
(PID.TID 0000.0001) %MON pe_b_mean                    =  -6.8241603070208E-01
(PID.TID 0000.0001) %MON ke_max                       =   8.1642429130924E-05
(PID.TID 0000.0001) %MON ke_mean                      =   1.2008326274258E-07
(PID.TID 0000.0001) %MON ke_vol                       =   4.6182978638388E+12
(PID.TID 0000.0001) // =======================================================
(PID.TID 0000.0001) // End MONITOR dynamic field statistics
(PID.TID 0000.0001) // =======================================================
(PID.TID 0000.0001) // =======================================================
(PID.TID 0000.0001) // Begin OBCS MONITOR field statistics
(PID.TID 0000.0001) // =======================================================
(PID.TID 0000.0001) %MON obc_N_vVel_max               =   9.3116257475360E-08
(PID.TID 0000.0001) %MON obc_N_vVel_min               =   9.3116257475358E-08
(PID.TID 0000.0001) %MON obc_N_vVel_mean              =   9.3116257475360E-08
(PID.TID 0000.0001) %MON obc_N_vVel_sd                =  -2.8241220406912E-28
(PID.TID 0000.0001) %MON obc_N_vVel_Int               =   6.1456729933738E+00
(PID.TID 0000.0001) // =======================================================
(PID.TID 0000.0001) // End OBCS MONITOR field statistics
(PID.TID 0000.0001) // =======================================================
 cg2d: Sum(rhs),rhsMax =   3.01034401105896E+00  4.53046726003432E+02
(PID.TID 0000.0001)      cg2d_init_res =   2.12848991513551E-06
(PID.TID 0000.0001)      cg2d_iters(min,last) =      -1      73
(PID.TID 0000.0001)      cg2d_last_res =   9.03924098560023E-12
(PID.TID 0000.0001) // =======================================================
(PID.TID 0000.0001) // Begin MONITOR dynamic field statistics
(PID.TID 0000.0001) // =======================================================
(PID.TID 0000.0001) %MON time_tsnumber                =                   903
(PID.TID 0000.0001) %MON time_secondsf                =   9.0300000000000E+04
(PID.TID 0000.0001) %MON dynstat_eta_max              =   5.7979676709742E+00
(PID.TID 0000.0001) %MON dynstat_eta_min              =  -1.4173907720608E+01
(PID.TID 0000.0001) %MON dynstat_eta_mean             =  -2.5256046265820E+00
(PID.TID 0000.0001) %MON dynstat_eta_sd               =   4.9415222130863E+00
(PID.TID 0000.0001) %MON dynstat_eta_del2             =   1.9058334580735E-01
(PID.TID 0000.0001) %MON dynstat_uvel_max             =   3.9861251754889E-03
(PID.TID 0000.0001) %MON dynstat_uvel_min             =  -1.6291311213060E-02
(PID.TID 0000.0001) %MON dynstat_uvel_mean            =  -9.4636421280764E-10
(PID.TID 0000.0001) %MON dynstat_uvel_sd              =   4.3308011572566E-04
(PID.TID 0000.0001) %MON dynstat_uvel_del2            =   6.9467754271711E-07
(PID.TID 0000.0001) %MON dynstat_vvel_max             =   1.2442477636766E-02
(PID.TID 0000.0001) %MON dynstat_vvel_min             =  -4.5179736177134E-03
(PID.TID 0000.0001) %MON dynstat_vvel_mean            =   1.1044685943595E-07
(PID.TID 0000.0001) %MON dynstat_vvel_sd              =   2.3957730132848E-04
(PID.TID 0000.0001) %MON dynstat_vvel_del2            =   6.2953990832615E-07
(PID.TID 0000.0001) %MON dynstat_wvel_max             =   6.5816606769537E-04
(PID.TID 0000.0001) %MON dynstat_wvel_min             =  -6.8263036249781E-04
(PID.TID 0000.0001) %MON dynstat_wvel_mean            =   1.4858392598644E-10
(PID.TID 0000.0001) %MON dynstat_wvel_sd              =   1.2264298931922E-05
(PID.TID 0000.0001) %MON dynstat_wvel_del2            =   5.0512863606833E-08
(PID.TID 0000.0001) %MON dynstat_theta_max            =   1.2000000000000E+00
(PID.TID 0000.0001) %MON dynstat_theta_min            =  -1.0000000000000E+00
(PID.TID 0000.0001) %MON dynstat_theta_mean           =   5.6527186167311E-01
(PID.TID 0000.0001) %MON dynstat_theta_sd             =   8.4899984867470E-01
(PID.TID 0000.0001) %MON dynstat_theta_del2           =   1.7675183884027E-06
(PID.TID 0000.0001) %MON dynstat_salt_max             =   3.4700000000000E+01
(PID.TID 0000.0001) %MON dynstat_salt_min             =   3.4000000000000E+01
(PID.TID 0000.0001) %MON dynstat_salt_mean            =   3.4498022601415E+01
(PID.TID 0000.0001) %MON dynstat_salt_sd              =   2.7013527620027E-01
(PID.TID 0000.0001) %MON dynstat_salt_del2            =   6.9676967882598E-07
(PID.TID 0000.0001) %MON advcfl_uvel_max              =   1.6291311213060E-03
(PID.TID 0000.0001) %MON advcfl_vvel_max              =   1.2442477636766E-03
(PID.TID 0000.0001) %MON advcfl_wvel_max              =   3.4131518124890E-03
(PID.TID 0000.0001) %MON advcfl_W_hf_max              =   3.4131518124890E-03
(PID.TID 0000.0001) %MON pe_b_mean                    =  -6.8241492566587E-01
(PID.TID 0000.0001) %MON ke_max                       =   8.2184588852532E-05
(PID.TID 0000.0001) %MON ke_mean                      =   1.2071405355885E-07
(PID.TID 0000.0001) %MON ke_vol                       =   4.6182978861482E+12
(PID.TID 0000.0001) // =======================================================
(PID.TID 0000.0001) // End MONITOR dynamic field statistics
(PID.TID 0000.0001) // =======================================================
(PID.TID 0000.0001) // =======================================================
(PID.TID 0000.0001) // Begin OBCS MONITOR field statistics
(PID.TID 0000.0001) // =======================================================
(PID.TID 0000.0001) %MON obc_N_vVel_max               =   9.0849980616972E-08
(PID.TID 0000.0001) %MON obc_N_vVel_min               =   9.0849980616970E-08
(PID.TID 0000.0001) %MON obc_N_vVel_mean              =   9.0849980616970E-08
(PID.TID 0000.0001) %MON obc_N_vVel_sd                =   2.2079765384319E-14
(PID.TID 0000.0001) %MON obc_N_vVel_Int               =   5.9960987207200E+00
(PID.TID 0000.0001) // =======================================================
(PID.TID 0000.0001) // End OBCS MONITOR field statistics
(PID.TID 0000.0001) // =======================================================
 cg2d: Sum(rhs),rhsMax =   3.01033955314180E+00  4.53046719416070E+02
(PID.TID 0000.0001)      cg2d_init_res =   2.13426276624428E-06
(PID.TID 0000.0001)      cg2d_iters(min,last) =      -1      73
(PID.TID 0000.0001)      cg2d_last_res =   9.06003355803654E-12
(PID.TID 0000.0001) // =======================================================
(PID.TID 0000.0001) // Begin MONITOR dynamic field statistics
(PID.TID 0000.0001) // =======================================================
(PID.TID 0000.0001) %MON time_tsnumber                =                   904
(PID.TID 0000.0001) %MON time_secondsf                =   9.0400000000000E+04
(PID.TID 0000.0001) %MON dynstat_eta_max              =   5.7979701688807E+00
(PID.TID 0000.0001) %MON dynstat_eta_min              =  -1.4173900437161E+01
(PID.TID 0000.0001) %MON dynstat_eta_mean             =  -2.5256008497765E+00
(PID.TID 0000.0001) %MON dynstat_eta_sd               =   4.9415210903048E+00
(PID.TID 0000.0001) %MON dynstat_eta_del2             =   1.9058335565678E-01
(PID.TID 0000.0001) %MON dynstat_uvel_max             =   3.9910801039849E-03
(PID.TID 0000.0001) %MON dynstat_uvel_min             =  -1.6332461808811E-02
(PID.TID 0000.0001) %MON dynstat_uvel_mean            =  -9.1865500285740E-10
(PID.TID 0000.0001) %MON dynstat_uvel_sd              =   4.3427541897574E-04
(PID.TID 0000.0001) %MON dynstat_uvel_del2            =   6.9632166189370E-07
(PID.TID 0000.0001) %MON dynstat_vvel_max             =   1.2473111007966E-02
(PID.TID 0000.0001) %MON dynstat_vvel_min             =  -4.5288458886912E-03
(PID.TID 0000.0001) %MON dynstat_vvel_mean            =   1.0737749167900E-07
(PID.TID 0000.0001) %MON dynstat_vvel_sd              =   2.4010117645014E-04
(PID.TID 0000.0001) %MON dynstat_vvel_del2            =   6.3090542331381E-07
(PID.TID 0000.0001) %MON dynstat_wvel_max             =   6.6000446558241E-04
(PID.TID 0000.0001) %MON dynstat_wvel_min             =  -6.8487641767538E-04
(PID.TID 0000.0001) %MON dynstat_wvel_mean            =   1.4639944138390E-10
(PID.TID 0000.0001) %MON dynstat_wvel_sd              =   1.2278379775250E-05
(PID.TID 0000.0001) %MON dynstat_wvel_del2            =   5.0715525337090E-08
(PID.TID 0000.0001) %MON dynstat_theta_max            =   1.2000000000000E+00
(PID.TID 0000.0001) %MON dynstat_theta_min            =  -1.0000000000000E+00
(PID.TID 0000.0001) %MON dynstat_theta_mean           =   5.6527142981466E-01
(PID.TID 0000.0001) %MON dynstat_theta_sd             =   8.4899967315668E-01
(PID.TID 0000.0001) %MON dynstat_theta_del2           =   1.7713022494025E-06
(PID.TID 0000.0001) %MON dynstat_salt_max             =   3.4700000000000E+01
(PID.TID 0000.0001) %MON dynstat_salt_min             =   3.4000000000000E+01
(PID.TID 0000.0001) %MON dynstat_salt_mean            =   3.4498022429301E+01
(PID.TID 0000.0001) %MON dynstat_salt_sd              =   2.7013521131863E-01
(PID.TID 0000.0001) %MON dynstat_salt_del2            =   6.9827713740195E-07
(PID.TID 0000.0001) %MON advcfl_uvel_max              =   1.6332461808811E-03
(PID.TID 0000.0001) %MON advcfl_vvel_max              =   1.2473111007966E-03
(PID.TID 0000.0001) %MON advcfl_wvel_max              =   3.4243820883769E-03
(PID.TID 0000.0001) %MON advcfl_W_hf_max              =   3.4243820883769E-03
(PID.TID 0000.0001) %MON pe_b_mean                    =  -6.8241381756824E-01
(PID.TID 0000.0001) %MON ke_max                       =   8.2729947259234E-05
(PID.TID 0000.0001) %MON ke_mean                      =   1.2134832702736E-07
(PID.TID 0000.0001) %MON ke_vol                       =   4.6182979085181E+12
(PID.TID 0000.0001) // =======================================================
(PID.TID 0000.0001) // End MONITOR dynamic field statistics
(PID.TID 0000.0001) // =======================================================
(PID.TID 0000.0001) // =======================================================
(PID.TID 0000.0001) // Begin OBCS MONITOR field statistics
(PID.TID 0000.0001) // =======================================================
(PID.TID 0000.0001) %MON obc_N_vVel_max               =   8.7997392082162E-08
(PID.TID 0000.0001) %MON obc_N_vVel_min               =   8.7997392082160E-08
(PID.TID 0000.0001) %MON obc_N_vVel_mean              =   8.7997392082162E-08
(PID.TID 0000.0001) %MON obc_N_vVel_sd                =  -4.6385021226995E-28
(PID.TID 0000.0001) %MON obc_N_vVel_Int               =   5.8078278774227E+00
(PID.TID 0000.0001) // =======================================================
(PID.TID 0000.0001) // End OBCS MONITOR field statistics
(PID.TID 0000.0001) // =======================================================
 cg2d: Sum(rhs),rhsMax =   3.01033508309501E+00  4.53046712588922E+02
(PID.TID 0000.0001)      cg2d_init_res =   2.14046972513004E-06
(PID.TID 0000.0001)      cg2d_iters(min,last) =      -1      73
(PID.TID 0000.0001)      cg2d_last_res =   9.08093825619083E-12
(PID.TID 0000.0001) // =======================================================
(PID.TID 0000.0001) // Begin MONITOR dynamic field statistics
(PID.TID 0000.0001) // =======================================================
(PID.TID 0000.0001) %MON time_tsnumber                =                   905
(PID.TID 0000.0001) %MON time_secondsf                =   9.0500000000000E+04
(PID.TID 0000.0001) %MON dynstat_eta_max              =   5.7979726722142E+00
(PID.TID 0000.0001) %MON dynstat_eta_min              =  -1.4173893122035E+01
(PID.TID 0000.0001) %MON dynstat_eta_mean             =  -2.5255970614579E+00
(PID.TID 0000.0001) %MON dynstat_eta_sd               =   4.9415199636734E+00
(PID.TID 0000.0001) %MON dynstat_eta_del2             =   1.9058336553137E-01
(PID.TID 0000.0001) %MON dynstat_uvel_max             =   3.9960305485298E-03
(PID.TID 0000.0001) %MON dynstat_uvel_min             =  -1.6373680990950E-02
(PID.TID 0000.0001) %MON dynstat_uvel_mean            =  -8.9067882314107E-10
(PID.TID 0000.0001) %MON dynstat_uvel_sd              =   4.3547376727846E-04
(PID.TID 0000.0001) %MON dynstat_uvel_del2            =   6.9797024167893E-07
(PID.TID 0000.0001) %MON dynstat_vvel_max             =   1.2503789616039E-02
(PID.TID 0000.0001) %MON dynstat_vvel_min             =  -4.5397382490382E-03
(PID.TID 0000.0001) %MON dynstat_vvel_mean            =   1.0370515445201E-07
(PID.TID 0000.0001) %MON dynstat_vvel_sd              =   2.4062731170038E-04
(PID.TID 0000.0001) %MON dynstat_vvel_del2            =   6.3227896453043E-07
(PID.TID 0000.0001) %MON dynstat_wvel_max             =   6.6184650254723E-04
(PID.TID 0000.0001) %MON dynstat_wvel_min             =  -6.8712892837806E-04
(PID.TID 0000.0001) %MON dynstat_wvel_mean            =   1.4440161108199E-10
(PID.TID 0000.0001) %MON dynstat_wvel_sd              =   1.2294987344854E-05
(PID.TID 0000.0001) %MON dynstat_wvel_del2            =   5.0943838557702E-08
(PID.TID 0000.0001) %MON dynstat_theta_max            =   1.2000000000000E+00
(PID.TID 0000.0001) %MON dynstat_theta_min            =  -1.0000000000000E+00
(PID.TID 0000.0001) %MON dynstat_theta_mean           =   5.6527099710228E-01
(PID.TID 0000.0001) %MON dynstat_theta_sd             =   8.4899949720362E-01
(PID.TID 0000.0001) %MON dynstat_theta_del2           =   1.7750928121447E-06
(PID.TID 0000.0001) %MON dynstat_salt_max             =   3.4700000000000E+01
(PID.TID 0000.0001) %MON dynstat_salt_min             =   3.4000000000000E+01
(PID.TID 0000.0001) %MON dynstat_salt_mean            =   3.4498022256845E+01
(PID.TID 0000.0001) %MON dynstat_salt_sd              =   2.7013514626778E-01
(PID.TID 0000.0001) %MON dynstat_salt_del2            =   6.9978761723520E-07
(PID.TID 0000.0001) %MON advcfl_uvel_max              =   1.6373680990950E-03
(PID.TID 0000.0001) %MON advcfl_vvel_max              =   1.2503789616039E-03
(PID.TID 0000.0001) %MON advcfl_wvel_max              =   3.4356446418903E-03
(PID.TID 0000.0001) %MON advcfl_W_hf_max              =   3.4356446418903E-03
(PID.TID 0000.0001) %MON pe_b_mean                    =  -6.8241270627374E-01
(PID.TID 0000.0001) %MON ke_max                       =   8.3278519569391E-05
(PID.TID 0000.0001) %MON ke_mean                      =   1.2198612170911E-07
(PID.TID 0000.0001) %MON ke_vol                       =   4.6182979309523E+12
(PID.TID 0000.0001) // =======================================================
(PID.TID 0000.0001) // End MONITOR dynamic field statistics
(PID.TID 0000.0001) // =======================================================
(PID.TID 0000.0001) // =======================================================
(PID.TID 0000.0001) // Begin OBCS MONITOR field statistics
(PID.TID 0000.0001) // =======================================================
(PID.TID 0000.0001) %MON obc_N_vVel_max               =   8.4550200329708E-08
(PID.TID 0000.0001) %MON obc_N_vVel_min               =   8.4550200329708E-08
(PID.TID 0000.0001) %MON obc_N_vVel_mean              =   8.4550200329708E-08
(PID.TID 0000.0001) %MON obc_N_vVel_sd                =  -1.0570736129962E-28
(PID.TID 0000.0001) %MON obc_N_vVel_Int               =   5.5803132217607E+00
(PID.TID 0000.0001) // =======================================================
(PID.TID 0000.0001) // End OBCS MONITOR field statistics
(PID.TID 0000.0001) // =======================================================
 cg2d: Sum(rhs),rhsMax =   3.01033060013330E+00  4.53046705517453E+02
(PID.TID 0000.0001)      cg2d_init_res =   2.14696547883094E-06
(PID.TID 0000.0001)      cg2d_iters(min,last) =      -1      73
(PID.TID 0000.0001)      cg2d_last_res =   9.10199648768815E-12
(PID.TID 0000.0001) // =======================================================
(PID.TID 0000.0001) // Begin MONITOR dynamic field statistics
(PID.TID 0000.0001) // =======================================================
(PID.TID 0000.0001) %MON time_tsnumber                =                   906
(PID.TID 0000.0001) %MON time_secondsf                =   9.0600000000000E+04
(PID.TID 0000.0001) %MON dynstat_eta_max              =   5.7979751821561E+00
(PID.TID 0000.0001) %MON dynstat_eta_min              =  -1.4173885774044E+01
(PID.TID 0000.0001) %MON dynstat_eta_mean             =  -2.5255932609422E+00
(PID.TID 0000.0001) %MON dynstat_eta_sd               =   4.9415188329694E+00
(PID.TID 0000.0001) %MON dynstat_eta_del2             =   1.9058337543083E-01
(PID.TID 0000.0001) %MON dynstat_uvel_max             =   4.0009764679976E-03
(PID.TID 0000.0001) %MON dynstat_uvel_min             =  -1.6414968703794E-02
(PID.TID 0000.0001) %MON dynstat_uvel_mean            =  -8.6256962399127E-10
(PID.TID 0000.0001) %MON dynstat_uvel_sd              =   4.3667515709070E-04
(PID.TID 0000.0001) %MON dynstat_uvel_del2            =   6.9962329434844E-07
(PID.TID 0000.0001) %MON dynstat_vvel_max             =   1.2534513410138E-02
(PID.TID 0000.0001) %MON dynstat_vvel_min             =  -4.5506507390609E-03
(PID.TID 0000.0001) %MON dynstat_vvel_mean            =   9.9426015363410E-08
(PID.TID 0000.0001) %MON dynstat_vvel_sd              =   2.4115578038292E-04
(PID.TID 0000.0001) %MON dynstat_vvel_del2            =   6.3365714536374E-07
(PID.TID 0000.0001) %MON dynstat_wvel_max             =   6.6369218143587E-04
(PID.TID 0000.0001) %MON dynstat_wvel_min             =  -6.8938790834745E-04
(PID.TID 0000.0001) %MON dynstat_wvel_mean            =   1.4261281636989E-10
(PID.TID 0000.0001) %MON dynstat_wvel_sd              =   1.2312908016888E-05
(PID.TID 0000.0001) %MON dynstat_wvel_del2            =   5.1182756562540E-08
(PID.TID 0000.0001) %MON dynstat_theta_max            =   1.2000000000000E+00
(PID.TID 0000.0001) %MON dynstat_theta_min            =  -1.0000000000000E+00
(PID.TID 0000.0001) %MON dynstat_theta_mean           =   5.6527056352988E-01
(PID.TID 0000.0001) %MON dynstat_theta_sd             =   8.4899932081857E-01
(PID.TID 0000.0001) %MON dynstat_theta_del2           =   1.7788935046501E-06
(PID.TID 0000.0001) %MON dynstat_salt_max             =   3.4700000000000E+01
(PID.TID 0000.0001) %MON dynstat_salt_min             =   3.4000000000000E+01
(PID.TID 0000.0001) %MON dynstat_salt_mean            =   3.4498022084045E+01
(PID.TID 0000.0001) %MON dynstat_salt_sd              =   2.7013508104873E-01
(PID.TID 0000.0001) %MON dynstat_salt_del2            =   7.0130201851544E-07
(PID.TID 0000.0001) %MON advcfl_uvel_max              =   1.6414968703794E-03
(PID.TID 0000.0001) %MON advcfl_vvel_max              =   1.2534513410138E-03
(PID.TID 0000.0001) %MON advcfl_wvel_max              =   3.4469395417372E-03
(PID.TID 0000.0001) %MON advcfl_W_hf_max              =   3.4469395417372E-03
(PID.TID 0000.0001) %MON pe_b_mean                    =  -6.8241159164600E-01
(PID.TID 0000.0001) %MON ke_max                       =   8.3830321050963E-05
(PID.TID 0000.0001) %MON ke_mean                      =   1.2262746807789E-07
(PID.TID 0000.0001) %MON ke_vol                       =   4.6182979534549E+12
(PID.TID 0000.0001) // =======================================================
(PID.TID 0000.0001) // End MONITOR dynamic field statistics
(PID.TID 0000.0001) // =======================================================
(PID.TID 0000.0001) // =======================================================
(PID.TID 0000.0001) // Begin OBCS MONITOR field statistics
(PID.TID 0000.0001) // =======================================================
(PID.TID 0000.0001) %MON obc_N_vVel_max               =   8.0503050725586E-08
(PID.TID 0000.0001) %MON obc_N_vVel_min               =   8.0503050725586E-08
(PID.TID 0000.0001) %MON obc_N_vVel_mean              =   8.0503050725586E-08
(PID.TID 0000.0001) %MON obc_N_vVel_sd                =   1.3440578383969E-14
(PID.TID 0000.0001) %MON obc_N_vVel_Int               =   5.3132013478886E+00
(PID.TID 0000.0001) // =======================================================
(PID.TID 0000.0001) // End OBCS MONITOR field statistics
(PID.TID 0000.0001) // =======================================================
 cg2d: Sum(rhs),rhsMax =   3.01032610346240E+00  4.53046698198025E+02
(PID.TID 0000.0001)      cg2d_init_res =   2.15359615674557E-06
(PID.TID 0000.0001)      cg2d_iters(min,last) =      -1      73
(PID.TID 0000.0001)      cg2d_last_res =   9.12313993725288E-12
(PID.TID 0000.0001) // =======================================================
(PID.TID 0000.0001) // Begin MONITOR dynamic field statistics
(PID.TID 0000.0001) // =======================================================
(PID.TID 0000.0001) %MON time_tsnumber                =                   907
(PID.TID 0000.0001) %MON time_secondsf                =   9.0700000000000E+04
(PID.TID 0000.0001) %MON dynstat_eta_max              =   5.7979776998908E+00
(PID.TID 0000.0001) %MON dynstat_eta_min              =  -1.4173878392018E+01
(PID.TID 0000.0001) %MON dynstat_eta_mean             =  -2.5255894475425E+00
(PID.TID 0000.0001) %MON dynstat_eta_sd               =   4.9415176979723E+00
(PID.TID 0000.0001) %MON dynstat_eta_del2             =   1.9058338535501E-01
(PID.TID 0000.0001) %MON dynstat_uvel_max             =   4.0059178216438E-03
(PID.TID 0000.0001) %MON dynstat_uvel_min             =  -1.6456324890918E-02
(PID.TID 0000.0001) %MON dynstat_uvel_mean            =  -8.3445090312900E-10
(PID.TID 0000.0001) %MON dynstat_uvel_sd              =   4.3787958539222E-04
(PID.TID 0000.0001) %MON dynstat_uvel_del2            =   7.0128083276969E-07
(PID.TID 0000.0001) %MON dynstat_vvel_max             =   1.2565282339307E-02
(PID.TID 0000.0001) %MON dynstat_vvel_min             =  -4.5615833987540E-03
(PID.TID 0000.0001) %MON dynstat_vvel_mean            =   9.4539394614957E-08
(PID.TID 0000.0001) %MON dynstat_vvel_sd              =   2.4168663803860E-04
(PID.TID 0000.0001) %MON dynstat_vvel_del2            =   6.3503644868286E-07
(PID.TID 0000.0001) %MON dynstat_wvel_max             =   6.6554150506843E-04
(PID.TID 0000.0001) %MON dynstat_wvel_min             =  -6.9165337182921E-04
(PID.TID 0000.0001) %MON dynstat_wvel_mean            =   1.4105421636099E-10
(PID.TID 0000.0001) %MON dynstat_wvel_sd              =   1.2330868492557E-05
(PID.TID 0000.0001) %MON dynstat_wvel_del2            =   5.1416601931269E-08
(PID.TID 0000.0001) %MON dynstat_theta_max            =   1.2000000000000E+00
(PID.TID 0000.0001) %MON dynstat_theta_min            =  -1.0000000000000E+00
(PID.TID 0000.0001) %MON dynstat_theta_mean           =   5.6527012909155E-01
(PID.TID 0000.0001) %MON dynstat_theta_sd             =   8.4899914400687E-01
(PID.TID 0000.0001) %MON dynstat_theta_del2           =   1.7827077157528E-06
(PID.TID 0000.0001) %MON dynstat_salt_max             =   3.4700000000000E+01
(PID.TID 0000.0001) %MON dynstat_salt_min             =   3.4000000000000E+01
(PID.TID 0000.0001) %MON dynstat_salt_mean            =   3.4498021910900E+01
(PID.TID 0000.0001) %MON dynstat_salt_sd              =   2.7013501566311E-01
(PID.TID 0000.0001) %MON dynstat_salt_del2            =   7.0282122962186E-07
(PID.TID 0000.0001) %MON advcfl_uvel_max              =   1.6456324890918E-03
(PID.TID 0000.0001) %MON advcfl_vvel_max              =   1.2565282339307E-03
(PID.TID 0000.0001) %MON advcfl_wvel_max              =   3.4582668591460E-03
(PID.TID 0000.0001) %MON advcfl_W_hf_max              =   3.4582668591460E-03
(PID.TID 0000.0001) %MON pe_b_mean                    =  -6.8241047354864E-01
(PID.TID 0000.0001) %MON ke_max                       =   8.4385367021432E-05
(PID.TID 0000.0001) %MON ke_mean                      =   1.2327239272220E-07
(PID.TID 0000.0001) %MON ke_vol                       =   4.6182979760300E+12
(PID.TID 0000.0001) // =======================================================
(PID.TID 0000.0001) // End MONITOR dynamic field statistics
(PID.TID 0000.0001) // =======================================================
(PID.TID 0000.0001) // =======================================================
(PID.TID 0000.0001) // Begin OBCS MONITOR field statistics
(PID.TID 0000.0001) // =======================================================
(PID.TID 0000.0001) %MON obc_N_vVel_max               =   7.5853715773396E-08
(PID.TID 0000.0001) %MON obc_N_vVel_min               =   7.5853715773396E-08
(PID.TID 0000.0001) %MON obc_N_vVel_mean              =   7.5853715773396E-08
(PID.TID 0000.0001) %MON obc_N_vVel_sd                =   3.8714799753065E-15
(PID.TID 0000.0001) %MON obc_N_vVel_Int               =   5.0063452410441E+00
(PID.TID 0000.0001) // =======================================================
(PID.TID 0000.0001) // End OBCS MONITOR field statistics
(PID.TID 0000.0001) // =======================================================
 cg2d: Sum(rhs),rhsMax =   3.01032159228086E+00  4.53046690628272E+02
(PID.TID 0000.0001)      cg2d_init_res =   2.16020264584069E-06
(PID.TID 0000.0001)      cg2d_iters(min,last) =      -1      73
(PID.TID 0000.0001)      cg2d_last_res =   9.14436312320401E-12
(PID.TID 0000.0001) // =======================================================
(PID.TID 0000.0001) // Begin MONITOR dynamic field statistics
(PID.TID 0000.0001) // =======================================================
(PID.TID 0000.0001) %MON time_tsnumber                =                   908
(PID.TID 0000.0001) %MON time_secondsf                =   9.0800000000000E+04
(PID.TID 0000.0001) %MON dynstat_eta_max              =   5.7979802266042E+00
(PID.TID 0000.0001) %MON dynstat_eta_min              =  -1.4173870974776E+01
(PID.TID 0000.0001) %MON dynstat_eta_mean             =  -2.5255856205735E+00
(PID.TID 0000.0001) %MON dynstat_eta_sd               =   4.9415165584634E+00
(PID.TID 0000.0001) %MON dynstat_eta_del2             =   1.9058339530366E-01
(PID.TID 0000.0001) %MON dynstat_uvel_max             =   4.0108545688629E-03
(PID.TID 0000.0001) %MON dynstat_uvel_min             =  -1.6497749495357E-02
(PID.TID 0000.0001) %MON dynstat_uvel_mean            =  -8.0643805728863E-10
(PID.TID 0000.0001) %MON dynstat_uvel_sd              =   4.3908704971894E-04
(PID.TID 0000.0001) %MON dynstat_uvel_del2            =   7.0294287010829E-07
(PID.TID 0000.0001) %MON dynstat_vvel_max             =   1.2596096352508E-02
(PID.TID 0000.0001) %MON dynstat_vvel_min             =  -4.5725362677436E-03
(PID.TID 0000.0001) %MON dynstat_vvel_mean            =   8.9047826801982E-08
(PID.TID 0000.0001) %MON dynstat_vvel_sd              =   2.4221994064037E-04
(PID.TID 0000.0001) %MON dynstat_vvel_del2            =   6.3641357560483E-07
(PID.TID 0000.0001) %MON dynstat_wvel_max             =   6.6739447624189E-04
(PID.TID 0000.0001) %MON dynstat_wvel_min             =  -6.9392533319313E-04
(PID.TID 0000.0001) %MON dynstat_wvel_mean            =   1.3974611217015E-10
(PID.TID 0000.0001) %MON dynstat_wvel_sd              =   1.2347690578361E-05
(PID.TID 0000.0001) %MON dynstat_wvel_del2            =   5.1630670250036E-08
(PID.TID 0000.0001) %MON dynstat_theta_max            =   1.2000000000000E+00
(PID.TID 0000.0001) %MON dynstat_theta_min            =  -1.0000000000000E+00
(PID.TID 0000.0001) %MON dynstat_theta_mean           =   5.6526969378169E-01
(PID.TID 0000.0001) %MON dynstat_theta_sd             =   8.4899896677466E-01
(PID.TID 0000.0001) %MON dynstat_theta_del2           =   1.7865384312780E-06
(PID.TID 0000.0001) %MON dynstat_salt_max             =   3.4700000000000E+01
(PID.TID 0000.0001) %MON dynstat_salt_min             =   3.4000000000000E+01
(PID.TID 0000.0001) %MON dynstat_salt_mean            =   3.4498021737406E+01
(PID.TID 0000.0001) %MON dynstat_salt_sd              =   2.7013495011275E-01
(PID.TID 0000.0001) %MON dynstat_salt_del2            =   7.0434603727755E-07
(PID.TID 0000.0001) %MON advcfl_uvel_max              =   1.6497749495357E-03
(PID.TID 0000.0001) %MON advcfl_vvel_max              =   1.2596096352508E-03
(PID.TID 0000.0001) %MON advcfl_wvel_max              =   3.4696266659656E-03
(PID.TID 0000.0001) %MON advcfl_W_hf_max              =   3.4696266659656E-03
(PID.TID 0000.0001) %MON pe_b_mean                    =  -6.8240935184606E-01
(PID.TID 0000.0001) %MON ke_max                       =   8.4943672848427E-05
(PID.TID 0000.0001) %MON ke_mean                      =   1.2392092272374E-07
(PID.TID 0000.0001) %MON ke_vol                       =   4.6182979986816E+12
(PID.TID 0000.0001) // =======================================================
(PID.TID 0000.0001) // End MONITOR dynamic field statistics
(PID.TID 0000.0001) // =======================================================
(PID.TID 0000.0001) // =======================================================
(PID.TID 0000.0001) // Begin OBCS MONITOR field statistics
(PID.TID 0000.0001) // =======================================================
(PID.TID 0000.0001) %MON obc_N_vVel_max               =   7.0603132627792E-08
(PID.TID 0000.0001) %MON obc_N_vVel_min               =   7.0603132627791E-08
(PID.TID 0000.0001) %MON obc_N_vVel_mean              =   7.0603132627791E-08
(PID.TID 0000.0001) %MON obc_N_vVel_sd                =   1.0877919644084E-14
(PID.TID 0000.0001) %MON obc_N_vVel_Int               =   4.6598067534342E+00
(PID.TID 0000.0001) // =======================================================
(PID.TID 0000.0001) // End OBCS MONITOR field statistics
(PID.TID 0000.0001) // =======================================================
 cg2d: Sum(rhs),rhsMax =   3.01031706578098E+00  4.53046682806886E+02
(PID.TID 0000.0001)      cg2d_init_res =   2.16663433857157E-06
(PID.TID 0000.0001)      cg2d_iters(min,last) =      -1      73
(PID.TID 0000.0001)      cg2d_last_res =   9.16577154545013E-12
(PID.TID 0000.0001) // =======================================================
(PID.TID 0000.0001) // Begin MONITOR dynamic field statistics
(PID.TID 0000.0001) // =======================================================
(PID.TID 0000.0001) %MON time_tsnumber                =                   909
(PID.TID 0000.0001) %MON time_secondsf                =   9.0900000000000E+04
(PID.TID 0000.0001) %MON dynstat_eta_max              =   5.7979827634786E+00
(PID.TID 0000.0001) %MON dynstat_eta_min              =  -1.4173863521158E+01
(PID.TID 0000.0001) %MON dynstat_eta_mean             =  -2.5255817793500E+00
(PID.TID 0000.0001) %MON dynstat_eta_sd               =   4.9415154142317E+00
(PID.TID 0000.0001) %MON dynstat_eta_del2             =   1.9058340527675E-01
(PID.TID 0000.0001) %MON dynstat_uvel_max             =   4.0157866691928E-03
(PID.TID 0000.0001) %MON dynstat_uvel_min             =  -1.6539242459248E-02
(PID.TID 0000.0001) %MON dynstat_uvel_mean            =  -7.7863838411653E-10
(PID.TID 0000.0001) %MON dynstat_uvel_sd              =   4.4029754818925E-04
(PID.TID 0000.0001) %MON dynstat_uvel_del2            =   7.0460941959725E-07
(PID.TID 0000.0001) %MON dynstat_vvel_max             =   1.2626955398603E-02
(PID.TID 0000.0001) %MON dynstat_vvel_min             =  -4.5835093852302E-03
(PID.TID 0000.0001) %MON dynstat_vvel_mean            =   8.2957092190809E-08
(PID.TID 0000.0001) %MON dynstat_vvel_sd              =   2.4275576106786E-04
(PID.TID 0000.0001) %MON dynstat_vvel_del2            =   6.3778576551477E-07
(PID.TID 0000.0001) %MON dynstat_wvel_max             =   6.6925109773497E-04
(PID.TID 0000.0001) %MON dynstat_wvel_min             =  -6.9620380685057E-04
(PID.TID 0000.0001) %MON dynstat_wvel_mean            =   1.3870751432394E-10
(PID.TID 0000.0001) %MON dynstat_wvel_sd              =   1.2362432495783E-05
(PID.TID 0000.0001) %MON dynstat_wvel_del2            =   5.1812656852641E-08
(PID.TID 0000.0001) %MON dynstat_theta_max            =   1.2000000000000E+00
(PID.TID 0000.0001) %MON dynstat_theta_min            =  -1.0000000000000E+00
(PID.TID 0000.0001) %MON dynstat_theta_mean           =   5.6526925759462E-01
(PID.TID 0000.0001) %MON dynstat_theta_sd             =   8.4899878912708E-01
(PID.TID 0000.0001) %MON dynstat_theta_del2           =   1.7903879079643E-06
(PID.TID 0000.0001) %MON dynstat_salt_max             =   3.4700000000000E+01
(PID.TID 0000.0001) %MON dynstat_salt_min             =   3.4000000000000E+01
(PID.TID 0000.0001) %MON dynstat_salt_mean            =   3.4498021563563E+01
(PID.TID 0000.0001) %MON dynstat_salt_sd              =   2.7013488439955E-01
(PID.TID 0000.0001) %MON dynstat_salt_del2            =   7.0587703699710E-07
(PID.TID 0000.0001) %MON advcfl_uvel_max              =   1.6539242459248E-03
(PID.TID 0000.0001) %MON advcfl_vvel_max              =   1.2626955398603E-03
(PID.TID 0000.0001) %MON advcfl_wvel_max              =   3.4810190342529E-03
(PID.TID 0000.0001) %MON advcfl_W_hf_max              =   3.4810190342529E-03
(PID.TID 0000.0001) %MON pe_b_mean                    =  -6.8240822640347E-01
(PID.TID 0000.0001) %MON ke_max                       =   8.5505253949725E-05
(PID.TID 0000.0001) %MON ke_mean                      =   1.2457308967375E-07
(PID.TID 0000.0001) %MON ke_vol                       =   4.6182980214138E+12
(PID.TID 0000.0001) // =======================================================
(PID.TID 0000.0001) // End MONITOR dynamic field statistics
(PID.TID 0000.0001) // =======================================================
(PID.TID 0000.0001) // =======================================================
(PID.TID 0000.0001) // Begin OBCS MONITOR field statistics
(PID.TID 0000.0001) // =======================================================
(PID.TID 0000.0001) %MON obc_N_vVel_max               =   6.4755462700318E-08
(PID.TID 0000.0001) %MON obc_N_vVel_min               =   6.4755462700318E-08
(PID.TID 0000.0001) %MON obc_N_vVel_mean              =   6.4755462700318E-08
(PID.TID 0000.0001) %MON obc_N_vVel_sd                =   8.2366278202312E-15
(PID.TID 0000.0001) %MON obc_N_vVel_Int               =   4.2738605382210E+00
(PID.TID 0000.0001) // =======================================================
(PID.TID 0000.0001) // End OBCS MONITOR field statistics
(PID.TID 0000.0001) // =======================================================
 cg2d: Sum(rhs),rhsMax =   3.01031252315601E+00  4.53046674733836E+02
(PID.TID 0000.0001)      cg2d_init_res =   2.17276777021259E-06
(PID.TID 0000.0001)      cg2d_iters(min,last) =      -1      73
(PID.TID 0000.0001)      cg2d_last_res =   9.18740969666913E-12
(PID.TID 0000.0001) // =======================================================
(PID.TID 0000.0001) // Begin MONITOR dynamic field statistics
(PID.TID 0000.0001) // =======================================================
(PID.TID 0000.0001) %MON time_tsnumber                =                   910
(PID.TID 0000.0001) %MON time_secondsf                =   9.1000000000000E+04
(PID.TID 0000.0001) %MON dynstat_eta_max              =   5.7979853116891E+00
(PID.TID 0000.0001) %MON dynstat_eta_min              =  -1.4173856030017E+01
(PID.TID 0000.0001) %MON dynstat_eta_mean             =  -2.5255779231953E+00
(PID.TID 0000.0001) %MON dynstat_eta_sd               =   4.9415142650707E+00
(PID.TID 0000.0001) %MON dynstat_eta_del2             =   1.9058341527424E-01
(PID.TID 0000.0001) %MON dynstat_uvel_max             =   4.0207140825181E-03
(PID.TID 0000.0001) %MON dynstat_uvel_min             =  -1.6580803724096E-02
(PID.TID 0000.0001) %MON dynstat_uvel_mean            =  -7.5115654410229E-10
(PID.TID 0000.0001) %MON dynstat_uvel_sd              =   4.4151107952828E-04
(PID.TID 0000.0001) %MON dynstat_uvel_del2            =   7.0628049428559E-07
(PID.TID 0000.0001) %MON dynstat_vvel_max             =   1.2657859426412E-02
(PID.TID 0000.0001) %MON dynstat_vvel_min             =  -4.5945027899972E-03
(PID.TID 0000.0001) %MON dynstat_vvel_mean            =   7.6276244564899E-08
(PID.TID 0000.0001) %MON dynstat_vvel_sd              =   2.4329420184301E-04
(PID.TID 0000.0001) %MON dynstat_vvel_del2            =   6.3915105610168E-07
(PID.TID 0000.0001) %MON dynstat_wvel_max             =   6.7111137228201E-04
(PID.TID 0000.0001) %MON dynstat_wvel_min             =  -6.9848880728174E-04
(PID.TID 0000.0001) %MON dynstat_wvel_mean            =   1.3795681749040E-10
(PID.TID 0000.0001) %MON dynstat_wvel_sd              =   1.2374502865969E-05
(PID.TID 0000.0001) %MON dynstat_wvel_del2            =   5.1953786507381E-08
(PID.TID 0000.0001) %MON dynstat_theta_max            =   1.2000000000000E+00
(PID.TID 0000.0001) %MON dynstat_theta_min            =  -1.0000000000000E+00
(PID.TID 0000.0001) %MON dynstat_theta_mean           =   5.6526882052510E-01
(PID.TID 0000.0001) %MON dynstat_theta_sd             =   8.4899861106744E-01
(PID.TID 0000.0001) %MON dynstat_theta_del2           =   1.7942574493569E-06
(PID.TID 0000.0001) %MON dynstat_salt_max             =   3.4700000000000E+01
(PID.TID 0000.0001) %MON dynstat_salt_min             =   3.4000000000000E+01
(PID.TID 0000.0001) %MON dynstat_salt_mean            =   3.4498021389368E+01
(PID.TID 0000.0001) %MON dynstat_salt_sd              =   2.7013481852442E-01
(PID.TID 0000.0001) %MON dynstat_salt_del2            =   7.0741457715154E-07
(PID.TID 0000.0001) %MON advcfl_uvel_max              =   1.6580803724096E-03
(PID.TID 0000.0001) %MON advcfl_vvel_max              =   1.2657859426412E-03
(PID.TID 0000.0001) %MON advcfl_wvel_max              =   3.4924440364087E-03
(PID.TID 0000.0001) %MON advcfl_W_hf_max              =   3.4924440364087E-03
(PID.TID 0000.0001) %MON pe_b_mean                    =  -6.8240709708821E-01
(PID.TID 0000.0001) %MON ke_max                       =   8.6070125792650E-05
(PID.TID 0000.0001) %MON ke_mean                      =   1.2522893283221E-07
(PID.TID 0000.0001) %MON ke_vol                       =   4.6182980442307E+12
(PID.TID 0000.0001) // =======================================================
(PID.TID 0000.0001) // End MONITOR dynamic field statistics
(PID.TID 0000.0001) // =======================================================
(PID.TID 0000.0001) // =======================================================
(PID.TID 0000.0001) // Begin OBCS MONITOR field statistics
(PID.TID 0000.0001) // =======================================================
(PID.TID 0000.0001) %MON obc_N_vVel_max               =   5.8318087782264E-08
(PID.TID 0000.0001) %MON obc_N_vVel_min               =   5.8318087782263E-08
(PID.TID 0000.0001) %MON obc_N_vVel_mean              =   5.8318087782263E-08
(PID.TID 0000.0001) %MON obc_N_vVel_sd                =   1.4472130815335E-14
(PID.TID 0000.0001) %MON obc_N_vVel_Int               =   3.8489937936294E+00
(PID.TID 0000.0001) // =======================================================
(PID.TID 0000.0001) // End OBCS MONITOR field statistics
(PID.TID 0000.0001) // =======================================================
 cg2d: Sum(rhs),rhsMax =   3.01030796361143E+00  4.53046666410109E+02
(PID.TID 0000.0001)      cg2d_init_res =   2.17852901515250E-06
(PID.TID 0000.0001)      cg2d_iters(min,last) =      -1      73
(PID.TID 0000.0001)      cg2d_last_res =   9.20919515711799E-12
(PID.TID 0000.0001) // =======================================================
(PID.TID 0000.0001) // Begin MONITOR dynamic field statistics
(PID.TID 0000.0001) // =======================================================
(PID.TID 0000.0001) %MON time_tsnumber                =                   911
(PID.TID 0000.0001) %MON time_secondsf                =   9.1100000000000E+04
(PID.TID 0000.0001) %MON dynstat_eta_max              =   5.7979878723789E+00
(PID.TID 0000.0001) %MON dynstat_eta_min              =  -1.4173848500232E+01
(PID.TID 0000.0001) %MON dynstat_eta_mean             =  -2.5255740514481E+00
(PID.TID 0000.0001) %MON dynstat_eta_sd               =   4.9415131107809E+00
(PID.TID 0000.0001) %MON dynstat_eta_del2             =   1.9058342529600E-01
(PID.TID 0000.0001) %MON dynstat_uvel_max             =   4.0256367688389E-03
(PID.TID 0000.0001) %MON dynstat_uvel_min             =  -1.6622433230662E-02
(PID.TID 0000.0001) %MON dynstat_uvel_mean            =  -7.2409797284385E-10
(PID.TID 0000.0001) %MON dynstat_uvel_sd              =   4.4272764308533E-04
(PID.TID 0000.0001) %MON dynstat_uvel_del2            =   7.0795610689911E-07
(PID.TID 0000.0001) %MON dynstat_vvel_max             =   1.2688808384695E-02
(PID.TID 0000.0001) %MON dynstat_vvel_min             =  -4.6055165204022E-03
(PID.TID 0000.0001) %MON dynstat_vvel_mean            =   6.9017630426035E-08
(PID.TID 0000.0001) %MON dynstat_vvel_sd              =   2.4383540255654E-04
(PID.TID 0000.0001) %MON dynstat_vvel_del2            =   6.4050845871036E-07
(PID.TID 0000.0001) %MON dynstat_wvel_max             =   6.7297530260991E-04
(PID.TID 0000.0001) %MON dynstat_wvel_min             =  -7.0078034896114E-04
(PID.TID 0000.0001) %MON dynstat_wvel_mean            =   1.3751113800225E-10
(PID.TID 0000.0001) %MON dynstat_wvel_sd              =   1.2383736824649E-05
(PID.TID 0000.0001) %MON dynstat_wvel_del2            =   5.2049567338366E-08
(PID.TID 0000.0001) %MON dynstat_theta_max            =   1.2000000000000E+00
(PID.TID 0000.0001) %MON dynstat_theta_min            =  -1.0000000000000E+00
(PID.TID 0000.0001) %MON dynstat_theta_mean           =   5.6526838256882E-01
(PID.TID 0000.0001) %MON dynstat_theta_sd             =   8.4899843259704E-01
(PID.TID 0000.0001) %MON dynstat_theta_del2           =   1.7981472092654E-06
(PID.TID 0000.0001) %MON dynstat_salt_max             =   3.4700000000000E+01
(PID.TID 0000.0001) %MON dynstat_salt_min             =   3.4000000000000E+01
(PID.TID 0000.0001) %MON dynstat_salt_mean            =   3.4498021214820E+01
(PID.TID 0000.0001) %MON dynstat_salt_sd              =   2.7013475248760E-01
(PID.TID 0000.0001) %MON dynstat_salt_del2            =   7.0895871939262E-07
(PID.TID 0000.0001) %MON advcfl_uvel_max              =   1.6622433230662E-03
(PID.TID 0000.0001) %MON advcfl_vvel_max              =   1.2688808384695E-03
(PID.TID 0000.0001) %MON advcfl_wvel_max              =   3.5039017448057E-03
(PID.TID 0000.0001) %MON advcfl_W_hf_max              =   3.5039017448057E-03
(PID.TID 0000.0001) %MON pe_b_mean                    =  -6.8240596377136E-01
(PID.TID 0000.0001) %MON ke_max                       =   8.6638303895822E-05
(PID.TID 0000.0001) %MON ke_mean                      =   1.2588850103170E-07
(PID.TID 0000.0001) %MON ke_vol                       =   4.6182980671362E+12
(PID.TID 0000.0001) // =======================================================
(PID.TID 0000.0001) // End MONITOR dynamic field statistics
(PID.TID 0000.0001) // =======================================================
(PID.TID 0000.0001) // =======================================================
(PID.TID 0000.0001) // Begin OBCS MONITOR field statistics
(PID.TID 0000.0001) // =======================================================
(PID.TID 0000.0001) %MON obc_N_vVel_max               =   5.1301673456160E-08
(PID.TID 0000.0001) %MON obc_N_vVel_min               =   5.1301673456159E-08
(PID.TID 0000.0001) %MON obc_N_vVel_mean              =   5.1301673456160E-08
(PID.TID 0000.0001) %MON obc_N_vVel_sd                =  -1.1399040080444E-28
(PID.TID 0000.0001) %MON obc_N_vVel_Int               =   3.3859104481066E+00
(PID.TID 0000.0001) // =======================================================
(PID.TID 0000.0001) // End OBCS MONITOR field statistics
(PID.TID 0000.0001) // =======================================================
 cg2d: Sum(rhs),rhsMax =   3.01030338635773E+00  4.53046657838263E+02
(PID.TID 0000.0001)      cg2d_init_res =   2.18387948848785E-06
(PID.TID 0000.0001)      cg2d_iters(min,last) =      -1      73
(PID.TID 0000.0001)      cg2d_last_res =   9.23115552415240E-12
(PID.TID 0000.0001) // =======================================================
(PID.TID 0000.0001) // Begin MONITOR dynamic field statistics
(PID.TID 0000.0001) // =======================================================
(PID.TID 0000.0001) %MON time_tsnumber                =                   912
(PID.TID 0000.0001) %MON time_secondsf                =   9.1200000000000E+04
(PID.TID 0000.0001) %MON dynstat_eta_max              =   5.7979904466814E+00
(PID.TID 0000.0001) %MON dynstat_eta_min              =  -1.4173840930725E+01
(PID.TID 0000.0001) %MON dynstat_eta_mean             =  -2.5255701634603E+00
(PID.TID 0000.0001) %MON dynstat_eta_sd               =   4.9415119511725E+00
(PID.TID 0000.0001) %MON dynstat_eta_del2             =   1.9058343534206E-01
(PID.TID 0000.0001) %MON dynstat_uvel_max             =   4.0305546884962E-03
(PID.TID 0000.0001) %MON dynstat_uvel_min             =  -1.6664130918845E-02
(PID.TID 0000.0001) %MON dynstat_uvel_mean            =  -6.9757097252639E-10
(PID.TID 0000.0001) %MON dynstat_uvel_sd              =   4.4394723884653E-04
(PID.TID 0000.0001) %MON dynstat_uvel_del2            =   7.0963626980954E-07
(PID.TID 0000.0001) %MON dynstat_vvel_max             =   1.2719802222191E-02
(PID.TID 0000.0001) %MON dynstat_vvel_min             =  -4.6165506143856E-03
(PID.TID 0000.0001) %MON dynstat_vvel_mean            =   6.1196895542276E-08
(PID.TID 0000.0001) %MON dynstat_vvel_sd              =   2.4437954099062E-04
(PID.TID 0000.0001) %MON dynstat_vvel_del2            =   6.4185803350714E-07
(PID.TID 0000.0001) %MON dynstat_wvel_max             =   6.7484289142233E-04
(PID.TID 0000.0001) %MON dynstat_wvel_min             =  -7.0307844644133E-04
(PID.TID 0000.0001) %MON dynstat_wvel_mean            =   1.3738647631925E-10
(PID.TID 0000.0001) %MON dynstat_wvel_sd              =   1.2390427614365E-05
(PID.TID 0000.0001) %MON dynstat_wvel_del2            =   5.2100127412838E-08
(PID.TID 0000.0001) %MON dynstat_theta_max            =   1.2000000000000E+00
(PID.TID 0000.0001) %MON dynstat_theta_min            =  -1.0000000000000E+00
(PID.TID 0000.0001) %MON dynstat_theta_mean           =   5.6526794372176E-01
(PID.TID 0000.0001) %MON dynstat_theta_sd             =   8.4899825371572E-01
(PID.TID 0000.0001) %MON dynstat_theta_del2           =   1.8020562215121E-06
(PID.TID 0000.0001) %MON dynstat_salt_max             =   3.4700000000000E+01
(PID.TID 0000.0001) %MON dynstat_salt_min             =   3.4000000000000E+01
(PID.TID 0000.0001) %MON dynstat_salt_mean            =   3.4498021039917E+01
(PID.TID 0000.0001) %MON dynstat_salt_sd              =   2.7013468628926E-01
(PID.TID 0000.0001) %MON dynstat_salt_del2            =   7.1050923341302E-07
(PID.TID 0000.0001) %MON advcfl_uvel_max              =   1.6664130918845E-03
(PID.TID 0000.0001) %MON advcfl_vvel_max              =   1.2719802222191E-03
(PID.TID 0000.0001) %MON advcfl_wvel_max              =   3.5153922322066E-03
(PID.TID 0000.0001) %MON advcfl_W_hf_max              =   3.5153922322066E-03
(PID.TID 0000.0001) %MON pe_b_mean                    =  -6.8240482632720E-01
(PID.TID 0000.0001) %MON ke_max                       =   8.7209803826927E-05
(PID.TID 0000.0001) %MON ke_mean                      =   1.2655185306404E-07
(PID.TID 0000.0001) %MON ke_vol                       =   4.6182980901344E+12
(PID.TID 0000.0001) // =======================================================
(PID.TID 0000.0001) // End MONITOR dynamic field statistics
(PID.TID 0000.0001) // =======================================================
(PID.TID 0000.0001) // =======================================================
(PID.TID 0000.0001) // Begin OBCS MONITOR field statistics
(PID.TID 0000.0001) // =======================================================
(PID.TID 0000.0001) %MON obc_N_vVel_max               =   4.3720155770310E-08
(PID.TID 0000.0001) %MON obc_N_vVel_min               =   4.3720155770310E-08
(PID.TID 0000.0001) %MON obc_N_vVel_mean              =   4.3720155770310E-08
(PID.TID 0000.0001) %MON obc_N_vVel_sd                =  -3.3132158019282E-29
(PID.TID 0000.0001) %MON obc_N_vVel_Int               =   2.8855302808405E+00
(PID.TID 0000.0001) // =======================================================
(PID.TID 0000.0001) // End OBCS MONITOR field statistics
(PID.TID 0000.0001) // =======================================================
 cg2d: Sum(rhs),rhsMax =   3.01029879062373E+00  4.53046649022029E+02
(PID.TID 0000.0001)      cg2d_init_res =   2.18883725467199E-06
(PID.TID 0000.0001)      cg2d_iters(min,last) =      -1      73
(PID.TID 0000.0001)      cg2d_last_res =   9.25334315309404E-12
(PID.TID 0000.0001) // =======================================================
(PID.TID 0000.0001) // Begin MONITOR dynamic field statistics
(PID.TID 0000.0001) // =======================================================
(PID.TID 0000.0001) %MON time_tsnumber                =                   913
(PID.TID 0000.0001) %MON time_secondsf                =   9.1300000000000E+04
(PID.TID 0000.0001) %MON dynstat_eta_max              =   5.7979930356976E+00
(PID.TID 0000.0001) %MON dynstat_eta_min              =  -1.4173833320431E+01
(PID.TID 0000.0001) %MON dynstat_eta_mean             =  -2.5255662586058E+00
(PID.TID 0000.0001) %MON dynstat_eta_sd               =   4.9415107860643E+00
(PID.TID 0000.0001) %MON dynstat_eta_del2             =   1.9058344541230E-01
(PID.TID 0000.0001) %MON dynstat_uvel_max             =   4.0354678019465E-03
(PID.TID 0000.0001) %MON dynstat_uvel_min             =  -1.6705896727847E-02
(PID.TID 0000.0001) %MON dynstat_uvel_mean            =  -6.7168589834774E-10
(PID.TID 0000.0001) %MON dynstat_uvel_sd              =   4.4516986744204E-04
(PID.TID 0000.0001) %MON dynstat_uvel_del2            =   7.1132099500516E-07
(PID.TID 0000.0001) %MON dynstat_vvel_max             =   1.2750840887556E-02
(PID.TID 0000.0001) %MON dynstat_vvel_min             =  -4.6276051094019E-03
(PID.TID 0000.0001) %MON dynstat_vvel_mean            =   5.2832968199995E-08
(PID.TID 0000.0001) %MON dynstat_vvel_sd              =   2.4492682763029E-04
(PID.TID 0000.0001) %MON dynstat_vvel_del2            =   6.4320085913586E-07
(PID.TID 0000.0001) %MON dynstat_wvel_max             =   6.7671414137596E-04
(PID.TID 0000.0001) %MON dynstat_wvel_min             =  -7.0538311415968E-04
(PID.TID 0000.0001) %MON dynstat_wvel_mean            =   1.3759738157074E-10
(PID.TID 0000.0001) %MON dynstat_wvel_sd              =   1.2395311094807E-05
(PID.TID 0000.0001) %MON dynstat_wvel_del2            =   5.2110123202296E-08
(PID.TID 0000.0001) %MON dynstat_theta_max            =   1.2000000000000E+00
(PID.TID 0000.0001) %MON dynstat_theta_min            =  -1.0000000000000E+00
(PID.TID 0000.0001) %MON dynstat_theta_mean           =   5.6526750398077E-01
(PID.TID 0000.0001) %MON dynstat_theta_sd             =   8.4899807442269E-01
(PID.TID 0000.0001) %MON dynstat_theta_del2           =   1.8059824796354E-06
(PID.TID 0000.0001) %MON dynstat_salt_max             =   3.4700000000000E+01
(PID.TID 0000.0001) %MON dynstat_salt_min             =   3.4000000000000E+01
(PID.TID 0000.0001) %MON dynstat_salt_mean            =   3.4498020864658E+01
(PID.TID 0000.0001) %MON dynstat_salt_sd              =   2.7013461992900E-01
(PID.TID 0000.0001) %MON dynstat_salt_del2            =   7.1206561980112E-07
(PID.TID 0000.0001) %MON advcfl_uvel_max              =   1.6705896727847E-03
(PID.TID 0000.0001) %MON advcfl_vvel_max              =   1.2750840887556E-03
(PID.TID 0000.0001) %MON advcfl_wvel_max              =   3.5269155707984E-03
(PID.TID 0000.0001) %MON advcfl_W_hf_max              =   3.5269155707984E-03
(PID.TID 0000.0001) %MON pe_b_mean                    =  -6.8240368463496E-01
(PID.TID 0000.0001) %MON ke_max                       =   8.7784641204834E-05
(PID.TID 0000.0001) %MON ke_mean                      =   1.2721905645125E-07
(PID.TID 0000.0001) %MON ke_vol                       =   4.6182981132290E+12
(PID.TID 0000.0001) // =======================================================
(PID.TID 0000.0001) // End MONITOR dynamic field statistics
(PID.TID 0000.0001) // =======================================================
(PID.TID 0000.0001) // =======================================================
(PID.TID 0000.0001) // Begin OBCS MONITOR field statistics
(PID.TID 0000.0001) // =======================================================
(PID.TID 0000.0001) %MON obc_N_vVel_max               =   3.5590736823933E-08
(PID.TID 0000.0001) %MON obc_N_vVel_min               =   3.5590736823933E-08
(PID.TID 0000.0001) %MON obc_N_vVel_mean              =   3.5590736823933E-08
(PID.TID 0000.0001) %MON obc_N_vVel_sd                =   5.3842955218740E-15
(PID.TID 0000.0001) %MON obc_N_vVel_Int               =   2.3489886303795E+00
(PID.TID 0000.0001) // =======================================================
(PID.TID 0000.0001) // End OBCS MONITOR field statistics
(PID.TID 0000.0001) // =======================================================
 cg2d: Sum(rhs),rhsMax =   3.01029417565585E+00  4.53046639966545E+02
(PID.TID 0000.0001)      cg2d_init_res =   2.19346377498009E-06
(PID.TID 0000.0001)      cg2d_iters(min,last) =      -1      73
(PID.TID 0000.0001)      cg2d_last_res =   9.27575949854270E-12
(PID.TID 0000.0001) // =======================================================
(PID.TID 0000.0001) // Begin MONITOR dynamic field statistics
(PID.TID 0000.0001) // =======================================================
(PID.TID 0000.0001) %MON time_tsnumber                =                   914
(PID.TID 0000.0001) %MON time_secondsf                =   9.1400000000000E+04
(PID.TID 0000.0001) %MON dynstat_eta_max              =   5.7979956404817E+00
(PID.TID 0000.0001) %MON dynstat_eta_min              =  -1.4173825668352E+01
(PID.TID 0000.0001) %MON dynstat_eta_mean             =  -2.5255623362810E+00
(PID.TID 0000.0001) %MON dynstat_eta_sd               =   4.9415096152855E+00
(PID.TID 0000.0001) %MON dynstat_eta_del2             =   1.9058345550658E-01
(PID.TID 0000.0001) %MON dynstat_uvel_max             =   4.0403760699856E-03
(PID.TID 0000.0001) %MON dynstat_uvel_min             =  -1.6747730596055E-02
(PID.TID 0000.0001) %MON dynstat_uvel_mean            =  -6.4656135472942E-10
(PID.TID 0000.0001) %MON dynstat_uvel_sd              =   4.4639553014798E-04
(PID.TID 0000.0001) %MON dynstat_uvel_del2            =   7.1301029418361E-07
(PID.TID 0000.0001) %MON dynstat_vvel_max             =   1.2781924329496E-02
(PID.TID 0000.0001) %MON dynstat_vvel_min             =  -4.6386800425431E-03
(PID.TID 0000.0001) %MON dynstat_vvel_mean            =   4.3948043906363E-08
(PID.TID 0000.0001) %MON dynstat_vvel_sd              =   2.4547749394994E-04
(PID.TID 0000.0001) %MON dynstat_vvel_del2            =   6.4453890233358E-07
(PID.TID 0000.0001) %MON dynstat_wvel_max             =   6.7858905512479E-04
(PID.TID 0000.0001) %MON dynstat_wvel_min             =  -7.0769436656045E-04
(PID.TID 0000.0001) %MON dynstat_wvel_mean            =   1.3815803564398E-10
(PID.TID 0000.0001) %MON dynstat_wvel_sd              =   1.2399504751255E-05
(PID.TID 0000.0001) %MON dynstat_wvel_del2            =   5.2088236133169E-08
(PID.TID 0000.0001) %MON dynstat_theta_max            =   1.2000000000000E+00
(PID.TID 0000.0001) %MON dynstat_theta_min            =  -1.0000000000000E+00
(PID.TID 0000.0001) %MON dynstat_theta_mean           =   5.6526706334330E-01
(PID.TID 0000.0001) %MON dynstat_theta_sd             =   8.4899789471736E-01
(PID.TID 0000.0001) %MON dynstat_theta_del2           =   1.8099231221921E-06
(PID.TID 0000.0001) %MON dynstat_salt_max             =   3.4700000000000E+01
(PID.TID 0000.0001) %MON dynstat_salt_min             =   3.4000000000000E+01
(PID.TID 0000.0001) %MON dynstat_salt_mean            =   3.4498020689043E+01
(PID.TID 0000.0001) %MON dynstat_salt_sd              =   2.7013455340658E-01
(PID.TID 0000.0001) %MON dynstat_salt_del2            =   7.1362716061812E-07
(PID.TID 0000.0001) %MON advcfl_uvel_max              =   1.6747730596055E-03
(PID.TID 0000.0001) %MON advcfl_vvel_max              =   1.2781924329496E-03
(PID.TID 0000.0001) %MON advcfl_wvel_max              =   3.5384718328022E-03
(PID.TID 0000.0001) %MON advcfl_W_hf_max              =   3.5384718328022E-03
(PID.TID 0000.0001) %MON pe_b_mean                    =  -6.8240253857893E-01
(PID.TID 0000.0001) %MON ke_max                       =   8.8362831698433E-05
(PID.TID 0000.0001) %MON ke_mean                      =   1.2789018467023E-07
(PID.TID 0000.0001) %MON ke_vol                       =   4.6182981364239E+12
(PID.TID 0000.0001) // =======================================================
(PID.TID 0000.0001) // End MONITOR dynamic field statistics
(PID.TID 0000.0001) // =======================================================
(PID.TID 0000.0001) // =======================================================
(PID.TID 0000.0001) // Begin OBCS MONITOR field statistics
(PID.TID 0000.0001) // =======================================================
(PID.TID 0000.0001) %MON obc_N_vVel_max               =   2.6933820216087E-08
(PID.TID 0000.0001) %MON obc_N_vVel_min               =   2.6933820216086E-08
(PID.TID 0000.0001) %MON obc_N_vVel_mean              =   2.6933820216086E-08
(PID.TID 0000.0001) %MON obc_N_vVel_sd                =   6.9935238702462E-15
(PID.TID 0000.0001) %MON obc_N_vVel_Int               =   1.7776321342617E+00
(PID.TID 0000.0001) // =======================================================
(PID.TID 0000.0001) // End OBCS MONITOR field statistics
(PID.TID 0000.0001) // =======================================================
 cg2d: Sum(rhs),rhsMax =   3.01028954072176E+00  4.53046630678366E+02
(PID.TID 0000.0001)      cg2d_init_res =   2.19785491515259E-06
(PID.TID 0000.0001)      cg2d_iters(min,last) =      -1      73
(PID.TID 0000.0001)      cg2d_last_res =   9.29847928025682E-12
(PID.TID 0000.0001) // =======================================================
(PID.TID 0000.0001) // Begin MONITOR dynamic field statistics
(PID.TID 0000.0001) // =======================================================
(PID.TID 0000.0001) %MON time_tsnumber                =                   915
(PID.TID 0000.0001) %MON time_secondsf                =   9.1500000000000E+04
(PID.TID 0000.0001) %MON dynstat_eta_max              =   5.7979982620504E+00
(PID.TID 0000.0001) %MON dynstat_eta_min              =  -1.4173817973526E+01
(PID.TID 0000.0001) %MON dynstat_eta_mean             =  -2.5255583959080E+00
(PID.TID 0000.0001) %MON dynstat_eta_sd               =   4.9415084386750E+00
(PID.TID 0000.0001) %MON dynstat_eta_del2             =   1.9058346562484E-01
(PID.TID 0000.0001) %MON dynstat_uvel_max             =   4.0452794536101E-03
(PID.TID 0000.0001) %MON dynstat_uvel_min             =  -1.6789632461113E-02
(PID.TID 0000.0001) %MON dynstat_uvel_mean            =  -6.2232437582176E-10
(PID.TID 0000.0001) %MON dynstat_uvel_sd              =   4.4762422888316E-04
(PID.TID 0000.0001) %MON dynstat_uvel_del2            =   7.1470417890323E-07
(PID.TID 0000.0001) %MON dynstat_vvel_max             =   1.2813052496626E-02
(PID.TID 0000.0001) %MON dynstat_vvel_min             =  -4.6497754504342E-03
(PID.TID 0000.0001) %MON dynstat_vvel_mean            =   3.4567557549314E-08
(PID.TID 0000.0001) %MON dynstat_vvel_sd              =   2.4603177552752E-04
(PID.TID 0000.0001) %MON dynstat_vvel_del2            =   6.4587480266576E-07
(PID.TID 0000.0001) %MON dynstat_wvel_max             =   6.8046763528538E-04
(PID.TID 0000.0001) %MON dynstat_wvel_min             =  -7.1001221814281E-04
(PID.TID 0000.0001) %MON dynstat_wvel_mean            =   1.3908000394199E-10
(PID.TID 0000.0001) %MON dynstat_wvel_sd              =   1.2404406799566E-05
(PID.TID 0000.0001) %MON dynstat_wvel_del2            =   5.2046298785115E-08
(PID.TID 0000.0001) %MON dynstat_theta_max            =   1.2000000000000E+00
(PID.TID 0000.0001) %MON dynstat_theta_min            =  -1.0000000000000E+00
(PID.TID 0000.0001) %MON dynstat_theta_mean           =   5.6526662180732E-01
(PID.TID 0000.0001) %MON dynstat_theta_sd             =   8.4899771459742E-01
(PID.TID 0000.0001) %MON dynstat_theta_del2           =   1.8138747120938E-06
(PID.TID 0000.0001) %MON dynstat_salt_max             =   3.4700000000000E+01
(PID.TID 0000.0001) %MON dynstat_salt_min             =   3.4000000000000E+01
(PID.TID 0000.0001) %MON dynstat_salt_mean            =   3.4498020513069E+01
(PID.TID 0000.0001) %MON dynstat_salt_sd              =   2.7013448672137E-01
(PID.TID 0000.0001) %MON dynstat_salt_del2            =   7.1519300350141E-07
(PID.TID 0000.0001) %MON advcfl_uvel_max              =   1.6789632461113E-03
(PID.TID 0000.0001) %MON advcfl_vvel_max              =   1.2813052496626E-03
(PID.TID 0000.0001) %MON advcfl_wvel_max              =   3.5500610907141E-03
(PID.TID 0000.0001) %MON advcfl_W_hf_max              =   3.5500610907141E-03
(PID.TID 0000.0001) %MON pe_b_mean                    =  -6.8240138804891E-01
(PID.TID 0000.0001) %MON ke_max                       =   8.8944391026121E-05
(PID.TID 0000.0001) %MON ke_mean                      =   1.2856531306588E-07
(PID.TID 0000.0001) %MON ke_vol                       =   4.6182981597225E+12
(PID.TID 0000.0001) // =======================================================
(PID.TID 0000.0001) // End MONITOR dynamic field statistics
(PID.TID 0000.0001) // =======================================================
(PID.TID 0000.0001) // =======================================================
(PID.TID 0000.0001) // Begin OBCS MONITOR field statistics
(PID.TID 0000.0001) // =======================================================
(PID.TID 0000.0001) %MON obc_N_vVel_max               =   1.7773152334235E-08
(PID.TID 0000.0001) %MON obc_N_vVel_min               =   1.7773152334234E-08
(PID.TID 0000.0001) %MON obc_N_vVel_mean              =   1.7773152334235E-08
(PID.TID 0000.0001) %MON obc_N_vVel_sd                =  -8.4802547311259E-30
(PID.TID 0000.0001) %MON obc_N_vVel_Int               =   1.1730280540595E+00
(PID.TID 0000.0001) // =======================================================
(PID.TID 0000.0001) // End OBCS MONITOR field statistics
(PID.TID 0000.0001) // =======================================================
 cg2d: Sum(rhs),rhsMax =   3.01028488511776E+00  4.53046621165438E+02
(PID.TID 0000.0001)      cg2d_init_res =   2.20213820946483E-06
(PID.TID 0000.0001)      cg2d_iters(min,last) =      -1      73
(PID.TID 0000.0001)      cg2d_last_res =   9.32150419167841E-12
(PID.TID 0000.0001) // =======================================================
(PID.TID 0000.0001) // Begin MONITOR dynamic field statistics
(PID.TID 0000.0001) // =======================================================
(PID.TID 0000.0001) %MON time_tsnumber                =                   916
(PID.TID 0000.0001) %MON time_secondsf                =   9.1600000000000E+04
(PID.TID 0000.0001) %MON dynstat_eta_max              =   5.7980009013757E+00
(PID.TID 0000.0001) %MON dynstat_eta_min              =  -1.4173810235053E+01
(PID.TID 0000.0001) %MON dynstat_eta_mean             =  -2.5255544369407E+00
(PID.TID 0000.0001) %MON dynstat_eta_sd               =   4.9415072560862E+00
(PID.TID 0000.0001) %MON dynstat_eta_del2             =   1.9058347576716E-01
(PID.TID 0000.0001) %MON dynstat_uvel_max             =   4.0501779139621E-03
(PID.TID 0000.0001) %MON dynstat_uvel_min             =  -1.6831602259743E-02
(PID.TID 0000.0001) %MON dynstat_uvel_mean            =  -5.9910586220624E-10
(PID.TID 0000.0001) %MON dynstat_uvel_sd              =   4.4885596620024E-04
(PID.TID 0000.0001) %MON dynstat_uvel_del2            =   7.1640266076589E-07
(PID.TID 0000.0001) %MON dynstat_vvel_max             =   1.2844225337487E-02
(PID.TID 0000.0001) %MON dynstat_vvel_min             =  -4.6608913693857E-03
(PID.TID 0000.0001) %MON dynstat_vvel_mean            =   2.4720130640397E-08
(PID.TID 0000.0001) %MON dynstat_vvel_sd              =   2.4658989157232E-04
(PID.TID 0000.0001) %MON dynstat_vvel_del2            =   6.4721159587807E-07
(PID.TID 0000.0001) %MON dynstat_wvel_max             =   6.8234988445544E-04
(PID.TID 0000.0001) %MON dynstat_wvel_min             =  -7.1233668343098E-04
(PID.TID 0000.0001) %MON dynstat_wvel_mean            =   1.4037391486729E-10
(PID.TID 0000.0001) %MON dynstat_wvel_sd              =   1.2411564716761E-05
(PID.TID 0000.0001) %MON dynstat_wvel_del2            =   5.1998119784908E-08
(PID.TID 0000.0001) %MON dynstat_theta_max            =   1.2000000000000E+00
(PID.TID 0000.0001) %MON dynstat_theta_min            =  -1.0000000000000E+00
(PID.TID 0000.0001) %MON dynstat_theta_mean           =   5.6526617937158E-01
(PID.TID 0000.0001) %MON dynstat_theta_sd             =   8.4899753406093E-01
(PID.TID 0000.0001) %MON dynstat_theta_del2           =   1.8178336160295E-06
(PID.TID 0000.0001) %MON dynstat_salt_max             =   3.4700000000000E+01
(PID.TID 0000.0001) %MON dynstat_salt_min             =   3.4000000000000E+01
(PID.TID 0000.0001) %MON dynstat_salt_mean            =   3.4498020336738E+01
(PID.TID 0000.0001) %MON dynstat_salt_sd              =   2.7013441987255E-01
(PID.TID 0000.0001) %MON dynstat_salt_del2            =   7.1676193288208E-07
(PID.TID 0000.0001) %MON advcfl_uvel_max              =   1.6831602259743E-03
(PID.TID 0000.0001) %MON advcfl_vvel_max              =   1.2844225337487E-03
(PID.TID 0000.0001) %MON advcfl_wvel_max              =   3.5616834171549E-03
(PID.TID 0000.0001) %MON advcfl_W_hf_max              =   3.5616834171549E-03
(PID.TID 0000.0001) %MON pe_b_mean                    =  -6.8240023294164E-01
(PID.TID 0000.0001) %MON ke_max                       =   8.9529334956012E-05
(PID.TID 0000.0001) %MON ke_mean                      =   1.2924451382215E-07
(PID.TID 0000.0001) %MON ke_vol                       =   4.6182981831283E+12
(PID.TID 0000.0001) // =======================================================
(PID.TID 0000.0001) // End MONITOR dynamic field statistics
(PID.TID 0000.0001) // =======================================================
(PID.TID 0000.0001) // =======================================================
(PID.TID 0000.0001) // Begin OBCS MONITOR field statistics
(PID.TID 0000.0001) // =======================================================
(PID.TID 0000.0001) %MON obc_N_vVel_max               =   8.1356211906147E-09
(PID.TID 0000.0001) %MON obc_N_vVel_min               =   8.1356211906146E-09
(PID.TID 0000.0001) %MON obc_N_vVel_mean              =   8.1356211906147E-09
(PID.TID 0000.0001) %MON obc_N_vVel_sd                =  -1.7626110851032E-30
(PID.TID 0000.0001) %MON obc_N_vVel_Int               =   5.3695099858057E-01
(PID.TID 0000.0001) // =======================================================
(PID.TID 0000.0001) // End OBCS MONITOR field statistics
(PID.TID 0000.0001) // =======================================================
 cg2d: Sum(rhs),rhsMax =   3.01028020817328E+00  4.53046611437122E+02
(PID.TID 0000.0001)      cg2d_init_res =   2.20640844217938E-06
(PID.TID 0000.0001)      cg2d_iters(min,last) =      -1      73
(PID.TID 0000.0001)      cg2d_last_res =   9.34429968138094E-12
(PID.TID 0000.0001) // =======================================================
(PID.TID 0000.0001) // Begin MONITOR dynamic field statistics
(PID.TID 0000.0001) // =======================================================
(PID.TID 0000.0001) %MON time_tsnumber                =                   917
(PID.TID 0000.0001) %MON time_secondsf                =   9.1700000000000E+04
(PID.TID 0000.0001) %MON dynstat_eta_max              =   5.7980035593664E+00
(PID.TID 0000.0001) %MON dynstat_eta_min              =  -1.4173802452088E+01
(PID.TID 0000.0001) %MON dynstat_eta_mean             =  -2.5255504588688E+00
(PID.TID 0000.0001) %MON dynstat_eta_sd               =   4.9415060673834E+00
(PID.TID 0000.0001) %MON dynstat_eta_del2             =   1.9058348593314E-01
(PID.TID 0000.0001) %MON dynstat_uvel_max             =   4.0550714126812E-03
(PID.TID 0000.0001) %MON dynstat_uvel_min             =  -1.6873639927993E-02
(PID.TID 0000.0001) %MON dynstat_uvel_mean            =  -5.7705498201468E-10
(PID.TID 0000.0001) %MON dynstat_uvel_sd              =   4.5009074528512E-04
(PID.TID 0000.0001) %MON dynstat_uvel_del2            =   7.1810574838067E-07
(PID.TID 0000.0001) %MON dynstat_vvel_max             =   1.2875442800595E-02
(PID.TID 0000.0001) %MON dynstat_vvel_min             =  -4.6720278352481E-03
(PID.TID 0000.0001) %MON dynstat_vvel_mean            =   1.4437551914141E-08
(PID.TID 0000.0001) %MON dynstat_vvel_sd              =   2.4715202295191E-04
(PID.TID 0000.0001) %MON dynstat_vvel_del2            =   6.4855240689855E-07
(PID.TID 0000.0001) %MON dynstat_wvel_max             =   6.8423580519359E-04
(PID.TID 0000.0001) %MON dynstat_wvel_min             =  -7.1466777700164E-04
(PID.TID 0000.0001) %MON dynstat_wvel_mean            =   1.4204930667415E-10
(PID.TID 0000.0001) %MON dynstat_wvel_sd              =   1.2422525777708E-05
(PID.TID 0000.0001) %MON dynstat_wvel_del2            =   5.1958106545176E-08
(PID.TID 0000.0001) %MON dynstat_theta_max            =   1.2000000000000E+00
(PID.TID 0000.0001) %MON dynstat_theta_min            =  -1.0000000000000E+00
(PID.TID 0000.0001) %MON dynstat_theta_mean           =   5.6526573603563E-01
(PID.TID 0000.0001) %MON dynstat_theta_sd             =   8.4899735310899E-01
(PID.TID 0000.0001) %MON dynstat_theta_del2           =   1.8217962816849E-06
(PID.TID 0000.0001) %MON dynstat_salt_max             =   3.4700000000000E+01
(PID.TID 0000.0001) %MON dynstat_salt_min             =   3.4000000000000E+01
(PID.TID 0000.0001) %MON dynstat_salt_mean            =   3.4498020160048E+01
(PID.TID 0000.0001) %MON dynstat_salt_sd              =   2.7013435286045E-01
(PID.TID 0000.0001) %MON dynstat_salt_del2            =   7.1833332876899E-07
(PID.TID 0000.0001) %MON advcfl_uvel_max              =   1.6873639927993E-03
(PID.TID 0000.0001) %MON advcfl_vvel_max              =   1.2875442800595E-03
(PID.TID 0000.0001) %MON advcfl_wvel_max              =   3.5733388850082E-03
(PID.TID 0000.0001) %MON advcfl_W_hf_max              =   3.5733388850082E-03
(PID.TID 0000.0001) %MON pe_b_mean                    =  -6.8239907316147E-01
(PID.TID 0000.0001) %MON ke_max                       =   9.0117679305141E-05
(PID.TID 0000.0001) %MON ke_mean                      =   1.2992785049766E-07
(PID.TID 0000.0001) %MON ke_vol                       =   4.6182982066446E+12
(PID.TID 0000.0001) // =======================================================
(PID.TID 0000.0001) // End MONITOR dynamic field statistics
(PID.TID 0000.0001) // =======================================================
(PID.TID 0000.0001) // =======================================================
(PID.TID 0000.0001) // Begin OBCS MONITOR field statistics
(PID.TID 0000.0001) // =======================================================
(PID.TID 0000.0001) %MON obc_N_vVel_max               =  -1.9486825628777E-09
(PID.TID 0000.0001) %MON obc_N_vVel_min               =  -1.9486825628778E-09
(PID.TID 0000.0001) %MON obc_N_vVel_mean              =  -1.9486825628777E-09
(PID.TID 0000.0001) %MON obc_N_vVel_sd                =   3.9448084808580E-16
(PID.TID 0000.0001) %MON obc_N_vVel_Int               =  -1.2861304914993E-01
(PID.TID 0000.0001) // =======================================================
(PID.TID 0000.0001) // End OBCS MONITOR field statistics
(PID.TID 0000.0001) // =======================================================
 cg2d: Sum(rhs),rhsMax =   3.01027550925021E+00  4.53046601504091E+02
(PID.TID 0000.0001)      cg2d_init_res =   2.21089581613654E-06
(PID.TID 0000.0001)      cg2d_iters(min,last) =      -1      73
(PID.TID 0000.0001)      cg2d_last_res =   9.36806847544672E-12
(PID.TID 0000.0001) // =======================================================
(PID.TID 0000.0001) // Begin MONITOR dynamic field statistics
(PID.TID 0000.0001) // =======================================================
(PID.TID 0000.0001) %MON time_tsnumber                =                   918
(PID.TID 0000.0001) %MON time_secondsf                =   9.1800000000000E+04
(PID.TID 0000.0001) %MON dynstat_eta_max              =   5.7980062368684E+00
(PID.TID 0000.0001) %MON dynstat_eta_min              =  -1.4173794623860E+01
(PID.TID 0000.0001) %MON dynstat_eta_mean             =  -2.5255464612163E+00
(PID.TID 0000.0001) %MON dynstat_eta_sd               =   4.9415048724524E+00
(PID.TID 0000.0001) %MON dynstat_eta_del2             =   1.9058349612339E-01
(PID.TID 0000.0001) %MON dynstat_uvel_max             =   4.0599599114088E-03
(PID.TID 0000.0001) %MON dynstat_uvel_min             =  -1.6915745400839E-02
(PID.TID 0000.0001) %MON dynstat_uvel_mean            =  -5.5629564590018E-10
(PID.TID 0000.0001) %MON dynstat_uvel_sd              =   4.5132856988385E-04
(PID.TID 0000.0001) %MON dynstat_uvel_del2            =   7.1981345389513E-07
(PID.TID 0000.0001) %MON dynstat_vvel_max             =   1.2906704834395E-02
(PID.TID 0000.0001) %MON dynstat_vvel_min             =  -4.6831848837767E-03
(PID.TID 0000.0001) %MON dynstat_vvel_mean            =   3.7547016282010E-09
(PID.TID 0000.0001) %MON dynstat_vvel_sd              =   2.4771829055106E-04
(PID.TID 0000.0001) %MON dynstat_vvel_del2            =   6.4990013719070E-07
(PID.TID 0000.0001) %MON dynstat_wvel_max             =   6.8612540005048E-04
(PID.TID 0000.0001) %MON dynstat_wvel_min             =  -7.1700551341207E-04
(PID.TID 0000.0001) %MON dynstat_wvel_mean            =   1.4411226577927E-10
(PID.TID 0000.0001) %MON dynstat_wvel_sd              =   1.2438684412511E-05
(PID.TID 0000.0001) %MON dynstat_wvel_del2            =   5.1939811547476E-08
(PID.TID 0000.0001) %MON dynstat_theta_max            =   1.2000000000000E+00
(PID.TID 0000.0001) %MON dynstat_theta_min            =  -1.0000000000000E+00
(PID.TID 0000.0001) %MON dynstat_theta_mean           =   5.6526529179928E-01
(PID.TID 0000.0001) %MON dynstat_theta_sd             =   8.4899717174358E-01
(PID.TID 0000.0001) %MON dynstat_theta_del2           =   1.8257596366949E-06
(PID.TID 0000.0001) %MON dynstat_salt_max             =   3.4700000000000E+01
(PID.TID 0000.0001) %MON dynstat_salt_min             =   3.4000000000000E+01
(PID.TID 0000.0001) %MON dynstat_salt_mean            =   3.4498019983000E+01
(PID.TID 0000.0001) %MON dynstat_salt_sd              =   2.7013428568574E-01
(PID.TID 0000.0001) %MON dynstat_salt_del2            =   7.1990641326115E-07
(PID.TID 0000.0001) %MON advcfl_uvel_max              =   1.6915745400839E-03
(PID.TID 0000.0001) %MON advcfl_vvel_max              =   1.2906704834395E-03
(PID.TID 0000.0001) %MON advcfl_wvel_max              =   3.5850275670604E-03
(PID.TID 0000.0001) %MON advcfl_W_hf_max              =   3.5850275670604E-03
(PID.TID 0000.0001) %MON pe_b_mean                    =  -6.8239790862006E-01
(PID.TID 0000.0001) %MON ke_max                       =   9.0709439916807E-05
(PID.TID 0000.0001) %MON ke_mean                      =   1.3061537253630E-07
(PID.TID 0000.0001) %MON ke_vol                       =   4.6182982302743E+12
(PID.TID 0000.0001) // =======================================================
(PID.TID 0000.0001) // End MONITOR dynamic field statistics
(PID.TID 0000.0001) // =======================================================
(PID.TID 0000.0001) // =======================================================
(PID.TID 0000.0001) // Begin OBCS MONITOR field statistics
(PID.TID 0000.0001) // =======================================================
(PID.TID 0000.0001) %MON obc_N_vVel_max               =  -1.2446498012360E-08
(PID.TID 0000.0001) %MON obc_N_vVel_min               =  -1.2446498012361E-08
(PID.TID 0000.0001) %MON obc_N_vVel_mean              =  -1.2446498012361E-08
(PID.TID 0000.0001) %MON obc_N_vVel_sd                =  -8.4062990212614E-30
(PID.TID 0000.0001) %MON obc_N_vVel_Int               =  -8.2146886881580E-01
(PID.TID 0000.0001) // =======================================================
(PID.TID 0000.0001) // End OBCS MONITOR field statistics
(PID.TID 0000.0001) // =======================================================
 cg2d: Sum(rhs),rhsMax =   3.01027078774445E+00  4.53046591378688E+02
(PID.TID 0000.0001)      cg2d_init_res =   2.21567552484015E-06
(PID.TID 0000.0001)      cg2d_iters(min,last) =      -1      73
(PID.TID 0000.0001)      cg2d_last_res =   9.39218419233066E-12
(PID.TID 0000.0001) // =======================================================
(PID.TID 0000.0001) // Begin MONITOR dynamic field statistics
(PID.TID 0000.0001) // =======================================================
(PID.TID 0000.0001) %MON time_tsnumber                =                   919
(PID.TID 0000.0001) %MON time_secondsf                =   9.1900000000000E+04
(PID.TID 0000.0001) %MON dynstat_eta_max              =   5.7980089346668E+00
(PID.TID 0000.0001) %MON dynstat_eta_min              =  -1.4173786749670E+01
(PID.TID 0000.0001) %MON dynstat_eta_mean             =  -2.5255424435453E+00
(PID.TID 0000.0001) %MON dynstat_eta_sd               =   4.9415036711908E+00
(PID.TID 0000.0001) %MON dynstat_eta_del2             =   1.9058350633803E-01
(PID.TID 0000.0001) %MON dynstat_uvel_max             =   4.0648433722161E-03
(PID.TID 0000.0001) %MON dynstat_uvel_min             =  -1.6957918612326E-02
(PID.TID 0000.0001) %MON dynstat_uvel_mean            =  -5.3695638623207E-10
(PID.TID 0000.0001) %MON dynstat_uvel_sd              =   4.5256944429388E-04
(PID.TID 0000.0001) %MON dynstat_uvel_del2            =   7.2152579003820E-07
(PID.TID 0000.0001) %MON dynstat_vvel_max             =   1.2938011387207E-02
(PID.TID 0000.0001) %MON dynstat_vvel_min             =  -4.6943625500884E-03
(PID.TID 0000.0001) %MON dynstat_vvel_mean            =  -7.2905037754385E-09
(PID.TID 0000.0001) %MON dynstat_vvel_sd              =   2.4828873645954E-04
(PID.TID 0000.0001) %MON dynstat_vvel_del2            =   6.5125718796619E-07
(PID.TID 0000.0001) %MON dynstat_wvel_max             =   6.8801867153204E-04
(PID.TID 0000.0001) %MON dynstat_wvel_min             =  -7.1934990725188E-04
(PID.TID 0000.0001) %MON dynstat_wvel_mean            =   1.4656832512387E-10
(PID.TID 0000.0001) %MON dynstat_wvel_sd              =   1.2461142155692E-05
(PID.TID 0000.0001) %MON dynstat_wvel_del2            =   5.1954552777737E-08
(PID.TID 0000.0001) %MON dynstat_theta_max            =   1.2000000000000E+00
(PID.TID 0000.0001) %MON dynstat_theta_min            =  -1.0000000000000E+00
(PID.TID 0000.0001) %MON dynstat_theta_mean           =   5.6526484666249E-01
(PID.TID 0000.0001) %MON dynstat_theta_sd             =   8.4899698996530E-01
(PID.TID 0000.0001) %MON dynstat_theta_del2           =   1.8297213401250E-06
(PID.TID 0000.0001) %MON dynstat_salt_max             =   3.4700000000000E+01
(PID.TID 0000.0001) %MON dynstat_salt_min             =   3.4000000000000E+01
(PID.TID 0000.0001) %MON dynstat_salt_mean            =   3.4498019805593E+01
(PID.TID 0000.0001) %MON dynstat_salt_sd              =   2.7013421834845E-01
(PID.TID 0000.0001) %MON dynstat_salt_del2            =   7.2148033269647E-07
(PID.TID 0000.0001) %MON advcfl_uvel_max              =   1.6957918612326E-03
(PID.TID 0000.0001) %MON advcfl_vvel_max              =   1.2938011387207E-03
(PID.TID 0000.0001) %MON advcfl_wvel_max              =   3.5967495362594E-03
(PID.TID 0000.0001) %MON advcfl_W_hf_max              =   3.5967495362594E-03
(PID.TID 0000.0001) %MON pe_b_mean                    =  -6.8239673923695E-01
(PID.TID 0000.0001) %MON ke_max                       =   9.1304632708107E-05
(PID.TID 0000.0001) %MON ke_mean                      =   1.3130711043211E-07
(PID.TID 0000.0001) %MON ke_vol                       =   4.6182982540204E+12
(PID.TID 0000.0001) // =======================================================
(PID.TID 0000.0001) // End MONITOR dynamic field statistics
(PID.TID 0000.0001) // =======================================================
(PID.TID 0000.0001) // =======================================================
(PID.TID 0000.0001) // Begin OBCS MONITOR field statistics
(PID.TID 0000.0001) // =======================================================
(PID.TID 0000.0001) %MON obc_N_vVel_max               =  -2.3321535921665E-08
(PID.TID 0000.0001) %MON obc_N_vVel_min               =  -2.3321535921666E-08
(PID.TID 0000.0001) %MON obc_N_vVel_mean              =  -2.3321535921666E-08
(PID.TID 0000.0001) %MON obc_N_vVel_sd                =  -4.8514945671092E-29
(PID.TID 0000.0001) %MON obc_N_vVel_Int               =  -1.5392213708300E+00
(PID.TID 0000.0001) // =======================================================
(PID.TID 0000.0001) // End OBCS MONITOR field statistics
(PID.TID 0000.0001) // =======================================================
 cg2d: Sum(rhs),rhsMax =   3.01026604309839E+00  4.53046581074545E+02
(PID.TID 0000.0001)      cg2d_init_res =   2.22082732667899E-06
(PID.TID 0000.0001)      cg2d_iters(min,last) =      -1      73
(PID.TID 0000.0001)      cg2d_last_res =   9.41659743769186E-12
(PID.TID 0000.0001) // =======================================================
(PID.TID 0000.0001) // Begin MONITOR dynamic field statistics
(PID.TID 0000.0001) // =======================================================
(PID.TID 0000.0001) %MON time_tsnumber                =                   920
(PID.TID 0000.0001) %MON time_secondsf                =   9.2000000000000E+04
(PID.TID 0000.0001) %MON dynstat_eta_max              =   5.7980116534643E+00
(PID.TID 0000.0001) %MON dynstat_eta_min              =  -1.4173778828893E+01
(PID.TID 0000.0001) %MON dynstat_eta_mean             =  -2.5255384054639E+00
(PID.TID 0000.0001) %MON dynstat_eta_sd               =   4.9415024635099E+00
(PID.TID 0000.0001) %MON dynstat_eta_del2             =   1.9058351657692E-01
(PID.TID 0000.0001) %MON dynstat_uvel_max             =   4.0697217572010E-03
(PID.TID 0000.0001) %MON dynstat_uvel_min             =  -1.7000159496120E-02
(PID.TID 0000.0001) %MON dynstat_uvel_mean            =  -5.1917761314359E-10
(PID.TID 0000.0001) %MON dynstat_uvel_sd              =   4.5381337331505E-04
(PID.TID 0000.0001) %MON dynstat_uvel_del2            =   7.2324276786882E-07
(PID.TID 0000.0001) %MON dynstat_vvel_max             =   1.2969362407314E-02
(PID.TID 0000.0001) %MON dynstat_vvel_min             =  -4.7055608687536E-03
(PID.TID 0000.0001) %MON dynstat_vvel_mean            =  -1.8657179949822E-08
(PID.TID 0000.0001) %MON dynstat_vvel_sd              =   2.4886330970320E-04
(PID.TID 0000.0001) %MON dynstat_vvel_del2            =   6.5262524113612E-07
(PID.TID 0000.0001) %MON dynstat_wvel_max             =   6.8991562213828E-04
(PID.TID 0000.0001) %MON dynstat_wvel_min             =  -7.2170097321075E-04
(PID.TID 0000.0001) %MON dynstat_wvel_mean            =   1.4942096682193E-10
(PID.TID 0000.0001) %MON dynstat_wvel_sd              =   1.2490595047973E-05
(PID.TID 0000.0001) %MON dynstat_wvel_del2            =   5.2010260878376E-08
(PID.TID 0000.0001) %MON dynstat_theta_max            =   1.2000000000000E+00
(PID.TID 0000.0001) %MON dynstat_theta_min            =  -1.0000000000000E+00
(PID.TID 0000.0001) %MON dynstat_theta_mean           =   5.6526440062592E-01
(PID.TID 0000.0001) %MON dynstat_theta_sd             =   8.4899680777174E-01
(PID.TID 0000.0001) %MON dynstat_theta_del2           =   1.8336800652107E-06
(PID.TID 0000.0001) %MON dynstat_salt_max             =   3.4700000000000E+01
(PID.TID 0000.0001) %MON dynstat_salt_min             =   3.4000000000000E+01
(PID.TID 0000.0001) %MON dynstat_salt_mean            =   3.4498019627826E+01
(PID.TID 0000.0001) %MON dynstat_salt_sd              =   2.7013415084771E-01
(PID.TID 0000.0001) %MON dynstat_salt_del2            =   7.2305496840398E-07
(PID.TID 0000.0001) %MON advcfl_uvel_max              =   1.7000159496120E-03
(PID.TID 0000.0001) %MON advcfl_vvel_max              =   1.2969362407314E-03
(PID.TID 0000.0001) %MON advcfl_wvel_max              =   3.6085048660537E-03
(PID.TID 0000.0001) %MON advcfl_W_hf_max              =   3.6085048660537E-03
(PID.TID 0000.0001) %MON pe_b_mean                    =  -6.8239556494130E-01
(PID.TID 0000.0001) %MON ke_max                       =   9.1903273650662E-05
(PID.TID 0000.0001) %MON ke_mean                      =   1.3200307193852E-07
(PID.TID 0000.0001) %MON ke_vol                       =   4.6182982778853E+12
(PID.TID 0000.0001) // =======================================================
(PID.TID 0000.0001) // End MONITOR dynamic field statistics
(PID.TID 0000.0001) // =======================================================
(PID.TID 0000.0001) // =======================================================
(PID.TID 0000.0001) // Begin OBCS MONITOR field statistics
(PID.TID 0000.0001) // =======================================================
(PID.TID 0000.0001) %MON obc_N_vVel_max               =  -3.4534464462842E-08
(PID.TID 0000.0001) %MON obc_N_vVel_min               =  -3.4534464462843E-08
(PID.TID 0000.0001) %MON obc_N_vVel_mean              =  -3.4534464462843E-08
(PID.TID 0000.0001) %MON obc_N_vVel_sd                =  -8.4210901632343E-29
(PID.TID 0000.0001) %MON obc_N_vVel_Int               =  -2.2792746545476E+00
(PID.TID 0000.0001) // =======================================================
(PID.TID 0000.0001) // End OBCS MONITOR field statistics
(PID.TID 0000.0001) // =======================================================
 cg2d: Sum(rhs),rhsMax =   3.01026127479905E+00  4.53046570606692E+02
(PID.TID 0000.0001)      cg2d_init_res =   2.22644818293824E-06
(PID.TID 0000.0001)      cg2d_iters(min,last) =      -1      73
(PID.TID 0000.0001)      cg2d_last_res =   9.44147109392717E-12
(PID.TID 0000.0001) // =======================================================
(PID.TID 0000.0001) // Begin MONITOR dynamic field statistics
(PID.TID 0000.0001) // =======================================================
(PID.TID 0000.0001) %MON time_tsnumber                =                   921
(PID.TID 0000.0001) %MON time_secondsf                =   9.2100000000000E+04
(PID.TID 0000.0001) %MON dynstat_eta_max              =   5.7980143938841E+00
(PID.TID 0000.0001) %MON dynstat_eta_min              =  -1.4173770860988E+01
(PID.TID 0000.0001) %MON dynstat_eta_mean             =  -2.5255343466256E+00
(PID.TID 0000.0001) %MON dynstat_eta_sd               =   4.9415012493454E+00
(PID.TID 0000.0001) %MON dynstat_eta_del2             =   1.9058352684054E-01
(PID.TID 0000.0001) %MON dynstat_uvel_max             =   4.0745950290741E-03
(PID.TID 0000.0001) %MON dynstat_uvel_min             =  -1.7042467985079E-02
(PID.TID 0000.0001) %MON dynstat_uvel_mean            =  -5.0308623959977E-10
(PID.TID 0000.0001) %MON dynstat_uvel_sd              =   4.5506036219534E-04
(PID.TID 0000.0001) %MON dynstat_uvel_del2            =   7.2496440083484E-07
(PID.TID 0000.0001) %MON dynstat_vvel_max             =   1.3000757842826E-02
(PID.TID 0000.0001) %MON dynstat_vvel_min             =  -4.7167798739620E-03
(PID.TID 0000.0001) %MON dynstat_vvel_mean            =  -3.0301573661138E-08
(PID.TID 0000.0001) %MON dynstat_vvel_sd              =   2.4944185772952E-04
(PID.TID 0000.0001) %MON dynstat_vvel_del2            =   6.5400511691404E-07
(PID.TID 0000.0001) %MON dynstat_wvel_max             =   6.9181625432687E-04
(PID.TID 0000.0001) %MON dynstat_wvel_min             =  -7.2405872587521E-04
(PID.TID 0000.0001) %MON dynstat_wvel_mean            =   1.5267130168249E-10
(PID.TID 0000.0001) %MON dynstat_wvel_sd              =   1.2527260713613E-05
(PID.TID 0000.0001) %MON dynstat_wvel_del2            =   5.2110692831210E-08
(PID.TID 0000.0001) %MON dynstat_theta_max            =   1.2000000000000E+00
(PID.TID 0000.0001) %MON dynstat_theta_min            =  -1.0000000000000E+00
(PID.TID 0000.0001) %MON dynstat_theta_mean           =   5.6526395369034E-01
(PID.TID 0000.0001) %MON dynstat_theta_sd             =   8.4899662515877E-01
(PID.TID 0000.0001) %MON dynstat_theta_del2           =   1.8376355686305E-06
(PID.TID 0000.0001) %MON dynstat_salt_max             =   3.4700000000000E+01
(PID.TID 0000.0001) %MON dynstat_salt_min             =   3.4000000000000E+01
(PID.TID 0000.0001) %MON dynstat_salt_mean            =   3.4498019449702E+01
(PID.TID 0000.0001) %MON dynstat_salt_sd              =   2.7013408318228E-01
(PID.TID 0000.0001) %MON dynstat_salt_del2            =   7.2463032788630E-07
(PID.TID 0000.0001) %MON advcfl_uvel_max              =   1.7042467985079E-03
(PID.TID 0000.0001) %MON advcfl_vvel_max              =   1.3000757842826E-03
(PID.TID 0000.0001) %MON advcfl_wvel_max              =   3.6202936293761E-03
(PID.TID 0000.0001) %MON advcfl_W_hf_max              =   3.6202936293761E-03
(PID.TID 0000.0001) %MON pe_b_mean                    =  -6.8239438567168E-01
(PID.TID 0000.0001) %MON ke_max                       =   9.2505378766088E-05
(PID.TID 0000.0001) %MON ke_mean                      =   1.3270323965565E-07
(PID.TID 0000.0001) %MON ke_vol                       =   4.6182983018715E+12
(PID.TID 0000.0001) // =======================================================
(PID.TID 0000.0001) // End MONITOR dynamic field statistics
(PID.TID 0000.0001) // =======================================================
(PID.TID 0000.0001) // =======================================================
(PID.TID 0000.0001) // Begin OBCS MONITOR field statistics
(PID.TID 0000.0001) // =======================================================
(PID.TID 0000.0001) %MON obc_N_vVel_max               =  -4.6043041981469E-08
(PID.TID 0000.0001) %MON obc_N_vVel_min               =  -4.6043041981469E-08
(PID.TID 0000.0001) %MON obc_N_vVel_mean              =  -4.6043041981469E-08
(PID.TID 0000.0001) %MON obc_N_vVel_sd                =  -6.1136720154628E-29
(PID.TID 0000.0001) %MON obc_N_vVel_Int               =  -3.0388407707770E+00
(PID.TID 0000.0001) // =======================================================
(PID.TID 0000.0001) // End OBCS MONITOR field statistics
(PID.TID 0000.0001) // =======================================================
 cg2d: Sum(rhs),rhsMax =   3.01025648238712E+00  4.53046559991538E+02
(PID.TID 0000.0001)      cg2d_init_res =   2.23254225487709E-06
(PID.TID 0000.0001)      cg2d_iters(min,last) =      -1      73
(PID.TID 0000.0001)      cg2d_last_res =   9.46671325510834E-12
(PID.TID 0000.0001) // =======================================================
(PID.TID 0000.0001) // Begin MONITOR dynamic field statistics
(PID.TID 0000.0001) // =======================================================
(PID.TID 0000.0001) %MON time_tsnumber                =                   922
(PID.TID 0000.0001) %MON time_secondsf                =   9.2200000000000E+04
(PID.TID 0000.0001) %MON dynstat_eta_max              =   5.7980171564640E+00
(PID.TID 0000.0001) %MON dynstat_eta_min              =  -1.4173762845501E+01
(PID.TID 0000.0001) %MON dynstat_eta_mean             =  -2.5255302667365E+00
(PID.TID 0000.0001) %MON dynstat_eta_sd               =   4.9415000286515E+00
(PID.TID 0000.0001) %MON dynstat_eta_del2             =   1.9058353712918E-01
(PID.TID 0000.0001) %MON dynstat_uvel_max             =   4.0794631505001E-03
(PID.TID 0000.0001) %MON dynstat_uvel_min             =  -1.7084844011240E-02
(PID.TID 0000.0001) %MON dynstat_uvel_mean            =  -4.8879741199971E-10
(PID.TID 0000.0001) %MON dynstat_uvel_sd              =   4.5631041656240E-04
(PID.TID 0000.0001) %MON dynstat_uvel_del2            =   7.2669070348616E-07
(PID.TID 0000.0001) %MON dynstat_vvel_max             =   1.3032197641826E-02
(PID.TID 0000.0001) %MON dynstat_vvel_min             =  -4.7280195997530E-03
(PID.TID 0000.0001) %MON dynstat_vvel_mean            =  -4.2177142490727E-08
(PID.TID 0000.0001) %MON dynstat_vvel_sd              =   2.5002412489459E-04
(PID.TID 0000.0001) %MON dynstat_vvel_del2            =   6.5539672590153E-07
(PID.TID 0000.0001) %MON dynstat_wvel_max             =   6.9372057053168E-04
(PID.TID 0000.0001) %MON dynstat_wvel_min             =  -7.2642317992466E-04
(PID.TID 0000.0001) %MON dynstat_wvel_mean            =   1.5631902862189E-10
(PID.TID 0000.0001) %MON dynstat_wvel_sd              =   1.2570852714056E-05
(PID.TID 0000.0001) %MON dynstat_wvel_del2            =   5.2255108653340E-08
(PID.TID 0000.0001) %MON dynstat_theta_max            =   1.2000000000000E+00
(PID.TID 0000.0001) %MON dynstat_theta_min            =  -1.0000000000000E+00
(PID.TID 0000.0001) %MON dynstat_theta_mean           =   5.6526350585704E-01
(PID.TID 0000.0001) %MON dynstat_theta_sd             =   8.4899644212106E-01
(PID.TID 0000.0001) %MON dynstat_theta_del2           =   1.8415887461909E-06
(PID.TID 0000.0001) %MON dynstat_salt_max             =   3.4700000000000E+01
(PID.TID 0000.0001) %MON dynstat_salt_min             =   3.4000000000000E+01
(PID.TID 0000.0001) %MON dynstat_salt_mean            =   3.4498019271218E+01
(PID.TID 0000.0001) %MON dynstat_salt_sd              =   2.7013401535042E-01
(PID.TID 0000.0001) %MON dynstat_salt_del2            =   7.2620664931943E-07
(PID.TID 0000.0001) %MON advcfl_uvel_max              =   1.7084844011240E-03
(PID.TID 0000.0001) %MON advcfl_vvel_max              =   1.3032197641826E-03
(PID.TID 0000.0001) %MON advcfl_wvel_max              =   3.6321158996233E-03
(PID.TID 0000.0001) %MON advcfl_W_hf_max              =   3.6321158996233E-03
(PID.TID 0000.0001) %MON pe_b_mean                    =  -6.8239320137753E-01
(PID.TID 0000.0001) %MON ke_max                       =   9.3110964120739E-05
(PID.TID 0000.0001) %MON ke_mean                      =   1.3340757032612E-07
(PID.TID 0000.0001) %MON ke_vol                       =   4.6182983259810E+12
(PID.TID 0000.0001) // =======================================================
(PID.TID 0000.0001) // End MONITOR dynamic field statistics
(PID.TID 0000.0001) // =======================================================
(PID.TID 0000.0001) // =======================================================
(PID.TID 0000.0001) // Begin OBCS MONITOR field statistics
(PID.TID 0000.0001) // =======================================================
(PID.TID 0000.0001) %MON obc_N_vVel_max               =  -5.7802168704127E-08
(PID.TID 0000.0001) %MON obc_N_vVel_min               =  -5.7802168704128E-08
(PID.TID 0000.0001) %MON obc_N_vVel_mean              =  -5.7802168704127E-08
(PID.TID 0000.0001) %MON obc_N_vVel_sd                =   1.1982181969501E-14
(PID.TID 0000.0001) %MON obc_N_vVel_Int               =  -3.8149431344723E+00
(PID.TID 0000.0001) // =======================================================
(PID.TID 0000.0001) // End OBCS MONITOR field statistics
(PID.TID 0000.0001) // =======================================================
 cg2d: Sum(rhs),rhsMax =   3.01025166545696E+00  4.53046549246832E+02
(PID.TID 0000.0001)      cg2d_init_res =   2.23907539045871E-06
(PID.TID 0000.0001)      cg2d_iters(min,last) =      -1      73
(PID.TID 0000.0001)      cg2d_last_res =   9.49236164210432E-12
(PID.TID 0000.0001) // =======================================================
(PID.TID 0000.0001) // Begin MONITOR dynamic field statistics
(PID.TID 0000.0001) // =======================================================
(PID.TID 0000.0001) %MON time_tsnumber                =                   923
(PID.TID 0000.0001) %MON time_secondsf                =   9.2300000000000E+04
(PID.TID 0000.0001) %MON dynstat_eta_max              =   5.7980199416460E+00
(PID.TID 0000.0001) %MON dynstat_eta_min              =  -1.4173754782082E+01
(PID.TID 0000.0001) %MON dynstat_eta_mean             =  -2.5255261655552E+00
(PID.TID 0000.0001) %MON dynstat_eta_sd               =   4.9414988013990E+00
(PID.TID 0000.0001) %MON dynstat_eta_del2             =   1.9058354744308E-01
(PID.TID 0000.0001) %MON dynstat_uvel_max             =   4.0843260845662E-03
(PID.TID 0000.0001) %MON dynstat_uvel_min             =  -1.7127287505531E-02
(PID.TID 0000.0001) %MON dynstat_uvel_mean            =  -4.7642220276061E-10
(PID.TID 0000.0001) %MON dynstat_uvel_sd              =   4.5756354235182E-04
(PID.TID 0000.0001) %MON dynstat_uvel_del2            =   7.2842169085109E-07
(PID.TID 0000.0001) %MON dynstat_vvel_max             =   1.3063681752291E-02
(PID.TID 0000.0001) %MON dynstat_vvel_min             =  -4.7392800797112E-03
(PID.TID 0000.0001) %MON dynstat_vvel_mean            =  -5.4234682374350E-08
(PID.TID 0000.0001) %MON dynstat_vvel_sd              =   2.5060975798601E-04
(PID.TID 0000.0001) %MON dynstat_vvel_del2            =   6.5679911572290E-07
(PID.TID 0000.0001) %MON dynstat_wvel_max             =   6.9562857317064E-04
(PID.TID 0000.0001) %MON dynstat_wvel_min             =  -7.2879435003808E-04
(PID.TID 0000.0001) %MON dynstat_wvel_mean            =   1.6036083905836E-10
(PID.TID 0000.0001) %MON dynstat_wvel_sd              =   1.2620604251498E-05
(PID.TID 0000.0001) %MON dynstat_wvel_del2            =   5.2438447973948E-08
(PID.TID 0000.0001) %MON dynstat_theta_max            =   1.2000000000000E+00
(PID.TID 0000.0001) %MON dynstat_theta_min            =  -1.0000000000000E+00
(PID.TID 0000.0001) %MON dynstat_theta_mean           =   5.6526305712743E-01
(PID.TID 0000.0001) %MON dynstat_theta_sd             =   8.4899625865120E-01
(PID.TID 0000.0001) %MON dynstat_theta_del2           =   1.8455415234141E-06
(PID.TID 0000.0001) %MON dynstat_salt_max             =   3.4700000000000E+01
(PID.TID 0000.0001) %MON dynstat_salt_min             =   3.4000000000000E+01
(PID.TID 0000.0001) %MON dynstat_salt_mean            =   3.4498019092377E+01
(PID.TID 0000.0001) %MON dynstat_salt_sd              =   2.7013394734960E-01
(PID.TID 0000.0001) %MON dynstat_salt_del2            =   7.2778443270486E-07
(PID.TID 0000.0001) %MON advcfl_uvel_max              =   1.7127287505531E-03
(PID.TID 0000.0001) %MON advcfl_vvel_max              =   1.3063681752291E-03
(PID.TID 0000.0001) %MON advcfl_wvel_max              =   3.6439717501904E-03
(PID.TID 0000.0001) %MON advcfl_W_hf_max              =   3.6439717501904E-03
(PID.TID 0000.0001) %MON pe_b_mean                    =  -6.8239201201893E-01
(PID.TID 0000.0001) %MON ke_max                       =   9.3720045829403E-05
(PID.TID 0000.0001) %MON ke_mean                      =   1.3411599588109E-07
(PID.TID 0000.0001) %MON ke_vol                       =   4.6182983502156E+12
(PID.TID 0000.0001) // =======================================================
(PID.TID 0000.0001) // End MONITOR dynamic field statistics
(PID.TID 0000.0001) // =======================================================
(PID.TID 0000.0001) // =======================================================
(PID.TID 0000.0001) // Begin OBCS MONITOR field statistics
(PID.TID 0000.0001) // =======================================================
(PID.TID 0000.0001) %MON obc_N_vVel_max               =  -6.9763982367264E-08
(PID.TID 0000.0001) %MON obc_N_vVel_min               =  -6.9763982367265E-08
(PID.TID 0000.0001) %MON obc_N_vVel_mean              =  -6.9763982367265E-08
(PID.TID 0000.0001) %MON obc_N_vVel_sd                =  -9.3874447721300E-29
(PID.TID 0000.0001) %MON obc_N_vVel_Int               =  -4.6044228362395E+00
(PID.TID 0000.0001) // =======================================================
(PID.TID 0000.0001) // End OBCS MONITOR field statistics
(PID.TID 0000.0001) // =======================================================
 cg2d: Sum(rhs),rhsMax =   3.01024682365937E+00  4.53046538391605E+02
(PID.TID 0000.0001)      cg2d_init_res =   2.24597082731451E-06
(PID.TID 0000.0001)      cg2d_iters(min,last) =      -1      73
(PID.TID 0000.0001)      cg2d_last_res =   9.51839910397275E-12
(PID.TID 0000.0001) // =======================================================
(PID.TID 0000.0001) // Begin MONITOR dynamic field statistics
(PID.TID 0000.0001) // =======================================================
(PID.TID 0000.0001) %MON time_tsnumber                =                   924
(PID.TID 0000.0001) %MON time_secondsf                =   9.2400000000000E+04
(PID.TID 0000.0001) %MON dynstat_eta_max              =   5.7980227497832E+00
(PID.TID 0000.0001) %MON dynstat_eta_min              =  -1.4173746670464E+01
(PID.TID 0000.0001) %MON dynstat_eta_mean             =  -2.5255220428948E+00
(PID.TID 0000.0001) %MON dynstat_eta_sd               =   4.9414975675763E+00
(PID.TID 0000.0001) %MON dynstat_eta_del2             =   1.9058355778241E-01
(PID.TID 0000.0001) %MON dynstat_uvel_max             =   4.0891837945800E-03
(PID.TID 0000.0001) %MON dynstat_uvel_min             =  -1.7169798398204E-02
(PID.TID 0000.0001) %MON dynstat_uvel_mean            =  -4.6606163421856E-10
(PID.TID 0000.0001) %MON dynstat_uvel_sd              =   4.5881974572766E-04
(PID.TID 0000.0001) %MON dynstat_uvel_del2            =   7.3015737829723E-07
(PID.TID 0000.0001) %MON dynstat_vvel_max             =   1.3095210122056E-02
(PID.TID 0000.0001) %MON dynstat_vvel_min             =  -4.7505613470999E-03
(PID.TID 0000.0001) %MON dynstat_vvel_mean            =  -6.6422480201555E-08
(PID.TID 0000.0001) %MON dynstat_vvel_sd              =   2.5119831837033E-04
(PID.TID 0000.0001) %MON dynstat_vvel_del2            =   6.5821060561546E-07
(PID.TID 0000.0001) %MON dynstat_wvel_max             =   6.9754026462269E-04
(PID.TID 0000.0001) %MON dynstat_wvel_min             =  -7.3117225092396E-04
(PID.TID 0000.0001) %MON dynstat_wvel_mean            =   1.6479253333791E-10
(PID.TID 0000.0001) %MON dynstat_wvel_sd              =   1.2675337408966E-05
(PID.TID 0000.0001) %MON dynstat_wvel_del2            =   5.2651974948609E-08
(PID.TID 0000.0001) %MON dynstat_theta_max            =   1.2000000000000E+00
(PID.TID 0000.0001) %MON dynstat_theta_min            =  -1.0000000000000E+00
(PID.TID 0000.0001) %MON dynstat_theta_mean           =   5.6526260750280E-01
(PID.TID 0000.0001) %MON dynstat_theta_sd             =   8.4899607474000E-01
(PID.TID 0000.0001) %MON dynstat_theta_del2           =   1.8494966456466E-06
(PID.TID 0000.0001) %MON dynstat_salt_max             =   3.4700000000000E+01
(PID.TID 0000.0001) %MON dynstat_salt_min             =   3.4000000000000E+01
(PID.TID 0000.0001) %MON dynstat_salt_mean            =   3.4498018913178E+01
(PID.TID 0000.0001) %MON dynstat_salt_sd              =   2.7013387917684E-01
(PID.TID 0000.0001) %MON dynstat_salt_del2            =   7.2936438867919E-07
(PID.TID 0000.0001) %MON advcfl_uvel_max              =   1.7169798398204E-03
(PID.TID 0000.0001) %MON advcfl_vvel_max              =   1.3095210122056E-03
(PID.TID 0000.0001) %MON advcfl_wvel_max              =   3.6558612546198E-03
(PID.TID 0000.0001) %MON advcfl_W_hf_max              =   3.6558612546198E-03
(PID.TID 0000.0001) %MON pe_b_mean                    =  -6.8239081756681E-01
(PID.TID 0000.0001) %MON ke_max                       =   9.4332640058242E-05
(PID.TID 0000.0001) %MON ke_mean                      =   1.3482842616127E-07
(PID.TID 0000.0001) %MON ke_vol                       =   4.6182983745766E+12
(PID.TID 0000.0001) // =======================================================
(PID.TID 0000.0001) // End MONITOR dynamic field statistics
(PID.TID 0000.0001) // =======================================================
(PID.TID 0000.0001) // =======================================================
(PID.TID 0000.0001) // Begin OBCS MONITOR field statistics
(PID.TID 0000.0001) // =======================================================
(PID.TID 0000.0001) %MON obc_N_vVel_max               =  -8.1878175751850E-08
(PID.TID 0000.0001) %MON obc_N_vVel_min               =  -8.1878175751853E-08
(PID.TID 0000.0001) %MON obc_N_vVel_mean              =  -8.1878175751850E-08
(PID.TID 0000.0001) %MON obc_N_vVel_sd                =   2.4420869033412E-14
(PID.TID 0000.0001) %MON obc_N_vVel_Int               =  -5.4039595996221E+00
(PID.TID 0000.0001) // =======================================================
(PID.TID 0000.0001) // End OBCS MONITOR field statistics
(PID.TID 0000.0001) // =======================================================
 cg2d: Sum(rhs),rhsMax =   3.01024195670917E+00  4.53046527446069E+02
(PID.TID 0000.0001)      cg2d_init_res =   2.25312311214348E-06
(PID.TID 0000.0001)      cg2d_iters(min,last) =      -1      73
(PID.TID 0000.0001)      cg2d_last_res =   9.54478129478819E-12
(PID.TID 0000.0001) // =======================================================
(PID.TID 0000.0001) // Begin MONITOR dynamic field statistics
(PID.TID 0000.0001) // =======================================================
(PID.TID 0000.0001) %MON time_tsnumber                =                   925
(PID.TID 0000.0001) %MON time_secondsf                =   9.2500000000000E+04
(PID.TID 0000.0001) %MON dynstat_eta_max              =   5.7980255811172E+00
(PID.TID 0000.0001) %MON dynstat_eta_min              =  -1.4173738510501E+01
(PID.TID 0000.0001) %MON dynstat_eta_mean             =  -2.5255178986288E+00
(PID.TID 0000.0001) %MON dynstat_eta_sd               =   4.9414963271953E+00
(PID.TID 0000.0001) %MON dynstat_eta_del2             =   1.9058356814748E-01
(PID.TID 0000.0001) %MON dynstat_uvel_max             =   4.0940362441155E-03
(PID.TID 0000.0001) %MON dynstat_uvel_min             =  -1.7212376618607E-02
(PID.TID 0000.0001) %MON dynstat_uvel_mean            =  -4.5780292066855E-10
(PID.TID 0000.0001) %MON dynstat_uvel_sd              =   4.6007903299566E-04
(PID.TID 0000.0001) %MON dynstat_uvel_del2            =   7.3189778130048E-07
(PID.TID 0000.0001) %MON dynstat_vvel_max             =   1.3126782698856E-02
(PID.TID 0000.0001) %MON dynstat_vvel_min             =  -4.7618634348305E-03
(PID.TID 0000.0001) %MON dynstat_vvel_mean            =  -7.8686461793815E-08
(PID.TID 0000.0001) %MON dynstat_vvel_sd              =   2.5178929977990E-04
(PID.TID 0000.0001) %MON dynstat_vvel_del2            =   6.5962899352668E-07
(PID.TID 0000.0001) %MON dynstat_wvel_max             =   6.9945564724823E-04
(PID.TID 0000.0001) %MON dynstat_wvel_min             =  -7.3355689731066E-04
(PID.TID 0000.0001) %MON dynstat_wvel_mean            =   1.6960752432582E-10
(PID.TID 0000.0001) %MON dynstat_wvel_sd              =   1.2733568983590E-05
(PID.TID 0000.0001) %MON dynstat_wvel_del2            =   5.2884298362318E-08
(PID.TID 0000.0001) %MON dynstat_theta_max            =   1.2000000000000E+00
(PID.TID 0000.0001) %MON dynstat_theta_min            =  -1.0000000000000E+00
(PID.TID 0000.0001) %MON dynstat_theta_mean           =   5.6526215698462E-01
(PID.TID 0000.0001) %MON dynstat_theta_sd             =   8.4899589037763E-01
(PID.TID 0000.0001) %MON dynstat_theta_del2           =   1.8534574722461E-06
(PID.TID 0000.0001) %MON dynstat_salt_max             =   3.4700000000000E+01
(PID.TID 0000.0001) %MON dynstat_salt_min             =   3.4000000000000E+01
(PID.TID 0000.0001) %MON dynstat_salt_mean            =   3.4498018733621E+01
(PID.TID 0000.0001) %MON dynstat_salt_sd              =   2.7013381082897E-01
(PID.TID 0000.0001) %MON dynstat_salt_del2            =   7.3094737525272E-07
(PID.TID 0000.0001) %MON advcfl_uvel_max              =   1.7212376618607E-03
(PID.TID 0000.0001) %MON advcfl_vvel_max              =   1.3126782698856E-03
(PID.TID 0000.0001) %MON advcfl_wvel_max              =   3.6677844865533E-03
(PID.TID 0000.0001) %MON advcfl_W_hf_max              =   3.6677844865533E-03
(PID.TID 0000.0001) %MON pe_b_mean                    =  -6.8238961800450E-01
(PID.TID 0000.0001) %MON ke_max                       =   9.4948763023433E-05
(PID.TID 0000.0001) %MON ke_mean                      =   1.3554475309373E-07
(PID.TID 0000.0001) %MON ke_vol                       =   4.6182983990652E+12
(PID.TID 0000.0001) // =======================================================
(PID.TID 0000.0001) // End MONITOR dynamic field statistics
(PID.TID 0000.0001) // =======================================================
(PID.TID 0000.0001) // =======================================================
(PID.TID 0000.0001) // Begin OBCS MONITOR field statistics
(PID.TID 0000.0001) // =======================================================
(PID.TID 0000.0001) %MON obc_N_vVel_max               =  -9.4091991626518E-08
(PID.TID 0000.0001) %MON obc_N_vVel_min               =  -9.4091991626521E-08
(PID.TID 0000.0001) %MON obc_N_vVel_mean              =  -9.4091991626518E-08
(PID.TID 0000.0001) %MON obc_N_vVel_sd                =   2.4453150434198E-14
(PID.TID 0000.0001) %MON obc_N_vVel_Int               =  -6.2100714473502E+00
(PID.TID 0000.0001) // =======================================================
(PID.TID 0000.0001) // End OBCS MONITOR field statistics
(PID.TID 0000.0001) // =======================================================
 cg2d: Sum(rhs),rhsMax =   3.01023706438653E+00  4.53046516431670E+02
(PID.TID 0000.0001)      cg2d_init_res =   2.26040517730597E-06
(PID.TID 0000.0001)      cg2d_iters(min,last) =      -1      73
(PID.TID 0000.0001)      cg2d_last_res =   9.57147177967679E-12
(PID.TID 0000.0001) // =======================================================
(PID.TID 0000.0001) // Begin MONITOR dynamic field statistics
(PID.TID 0000.0001) // =======================================================
(PID.TID 0000.0001) %MON time_tsnumber                =                   926
(PID.TID 0000.0001) %MON time_secondsf                =   9.2600000000000E+04
(PID.TID 0000.0001) %MON dynstat_eta_max              =   5.7980284357873E+00
(PID.TID 0000.0001) %MON dynstat_eta_min              =  -1.4173730302128E+01
(PID.TID 0000.0001) %MON dynstat_eta_mean             =  -2.5255137326923E+00
(PID.TID 0000.0001) %MON dynstat_eta_sd               =   4.9414950802898E+00
(PID.TID 0000.0001) %MON dynstat_eta_del2             =   1.9058357853869E-01
(PID.TID 0000.0001) %MON dynstat_uvel_max             =   4.0988833970417E-03
(PID.TID 0000.0001) %MON dynstat_uvel_min             =  -1.7255022095257E-02
(PID.TID 0000.0001) %MON dynstat_uvel_mean            =  -4.5171701668990E-10
(PID.TID 0000.0001) %MON dynstat_uvel_sd              =   4.6134141051203E-04
(PID.TID 0000.0001) %MON dynstat_uvel_del2            =   7.3364291519956E-07
(PID.TID 0000.0001) %MON dynstat_vvel_max             =   1.3158399430298E-02
(PID.TID 0000.0001) %MON dynstat_vvel_min             =  -4.7731863754832E-03
(PID.TID 0000.0001) %MON dynstat_vvel_mean            =  -9.0970365798750E-08
(PID.TID 0000.0001) %MON dynstat_vvel_sd              =   2.5238215024977E-04
(PID.TID 0000.0001) %MON dynstat_vvel_del2            =   6.6105181296400E-07
(PID.TID 0000.0001) %MON dynstat_wvel_max             =   7.0137472337869E-04
(PID.TID 0000.0001) %MON dynstat_wvel_min             =  -7.3594830387576E-04
(PID.TID 0000.0001) %MON dynstat_wvel_mean            =   1.7479776163337E-10
(PID.TID 0000.0001) %MON dynstat_wvel_sd              =   1.2793640282798E-05
(PID.TID 0000.0001) %MON dynstat_wvel_del2            =   5.3122631123698E-08
(PID.TID 0000.0001) %MON dynstat_theta_max            =   1.2000000000000E+00
(PID.TID 0000.0001) %MON dynstat_theta_min            =  -1.0000000000000E+00
(PID.TID 0000.0001) %MON dynstat_theta_mean           =   5.6526170557436E-01
(PID.TID 0000.0001) %MON dynstat_theta_sd             =   8.4899570555705E-01
(PID.TID 0000.0001) %MON dynstat_theta_del2           =   1.8574275597085E-06
(PID.TID 0000.0001) %MON dynstat_salt_max             =   3.4700000000000E+01
(PID.TID 0000.0001) %MON dynstat_salt_min             =   3.4000000000000E+01
(PID.TID 0000.0001) %MON dynstat_salt_mean            =   3.4498018553707E+01
(PID.TID 0000.0001) %MON dynstat_salt_sd              =   2.7013374230368E-01
(PID.TID 0000.0001) %MON dynstat_salt_del2            =   7.3253430482648E-07
(PID.TID 0000.0001) %MON advcfl_uvel_max              =   1.7255022095257E-03
(PID.TID 0000.0001) %MON advcfl_vvel_max              =   1.3158399430298E-03
(PID.TID 0000.0001) %MON advcfl_wvel_max              =   3.6797415193788E-03
(PID.TID 0000.0001) %MON advcfl_W_hf_max              =   3.6797415193788E-03
(PID.TID 0000.0001) %MON pe_b_mean                    =  -6.8238841332777E-01
(PID.TID 0000.0001) %MON ke_max                       =   9.5568430992008E-05
(PID.TID 0000.0001) %MON ke_mean                      =   1.3626485597563E-07
(PID.TID 0000.0001) %MON ke_vol                       =   4.6182984236821E+12
(PID.TID 0000.0001) // =======================================================
(PID.TID 0000.0001) // End MONITOR dynamic field statistics
(PID.TID 0000.0001) // =======================================================
(PID.TID 0000.0001) // =======================================================
(PID.TID 0000.0001) // Begin OBCS MONITOR field statistics
(PID.TID 0000.0001) // =======================================================
(PID.TID 0000.0001) %MON obc_N_vVel_max               =  -1.0635047557026E-07
(PID.TID 0000.0001) %MON obc_N_vVel_min               =  -1.0635047557026E-07
(PID.TID 0000.0001) %MON obc_N_vVel_mean              =  -1.0635047557026E-07
(PID.TID 0000.0001) %MON obc_N_vVel_sd                =   3.0920857315538E-14
(PID.TID 0000.0001) %MON obc_N_vVel_Int               =  -7.0191313876373E+00
(PID.TID 0000.0001) // =======================================================
(PID.TID 0000.0001) // End OBCS MONITOR field statistics
(PID.TID 0000.0001) // =======================================================
 cg2d: Sum(rhs),rhsMax =   3.01023214653955E+00  4.53046505370907E+02
(PID.TID 0000.0001)      cg2d_init_res =   2.26767653129249E-06
(PID.TID 0000.0001)      cg2d_iters(min,last) =      -1      73
(PID.TID 0000.0001)      cg2d_last_res =   9.59841157740531E-12
(PID.TID 0000.0001) // =======================================================
(PID.TID 0000.0001) // Begin MONITOR dynamic field statistics
(PID.TID 0000.0001) // =======================================================
(PID.TID 0000.0001) %MON time_tsnumber                =                   927
(PID.TID 0000.0001) %MON time_secondsf                =   9.2700000000000E+04
(PID.TID 0000.0001) %MON dynstat_eta_max              =   5.7980313138231E+00
(PID.TID 0000.0001) %MON dynstat_eta_min              =  -1.4173722045418E+01
(PID.TID 0000.0001) %MON dynstat_eta_mean             =  -2.5255095450832E+00
(PID.TID 0000.0001) %MON dynstat_eta_sd               =   4.9414938269152E+00
(PID.TID 0000.0001) %MON dynstat_eta_del2             =   1.9058358895651E-01
(PID.TID 0000.0001) %MON dynstat_uvel_max             =   4.1037252174849E-03
(PID.TID 0000.0001) %MON dynstat_uvel_min             =  -1.7297734755764E-02
(PID.TID 0000.0001) %MON dynstat_uvel_mean            =  -4.4785933728576E-10
(PID.TID 0000.0001) %MON dynstat_uvel_sd              =   4.6260688458875E-04
(PID.TID 0000.0001) %MON dynstat_uvel_del2            =   7.3539279496969E-07
(PID.TID 0000.0001) %MON dynstat_vvel_max             =   1.3190060263826E-02
(PID.TID 0000.0001) %MON dynstat_vvel_min             =  -4.7845302013672E-03
(PID.TID 0000.0001) %MON dynstat_vvel_mean            =  -1.0321594343217E-07
(PID.TID 0000.0001) %MON dynstat_vvel_sd              =   2.5297629636143E-04
(PID.TID 0000.0001) %MON dynstat_vvel_del2            =   6.6247661233084E-07
(PID.TID 0000.0001) %MON dynstat_wvel_max             =   7.0329749532177E-04
(PID.TID 0000.0001) %MON dynstat_wvel_min             =  -7.3834648538546E-04
(PID.TID 0000.0001) %MON dynstat_wvel_mean            =   1.8035258501570E-10
(PID.TID 0000.0001) %MON dynstat_wvel_sd              =   1.2853856424163E-05
(PID.TID 0000.0001) %MON dynstat_wvel_del2            =   5.3354135640582E-08
(PID.TID 0000.0001) %MON dynstat_theta_max            =   1.2000000000000E+00
(PID.TID 0000.0001) %MON dynstat_theta_min            =  -1.0000000000000E+00
(PID.TID 0000.0001) %MON dynstat_theta_mean           =   5.6526125327324E-01
(PID.TID 0000.0001) %MON dynstat_theta_sd             =   8.4899552027530E-01
(PID.TID 0000.0001) %MON dynstat_theta_del2           =   1.8614104469644E-06
(PID.TID 0000.0001) %MON dynstat_salt_max             =   3.4700000000000E+01
(PID.TID 0000.0001) %MON dynstat_salt_min             =   3.4000000000000E+01
(PID.TID 0000.0001) %MON dynstat_salt_mean            =   3.4498018373436E+01
(PID.TID 0000.0001) %MON dynstat_salt_sd              =   2.7013367359992E-01
(PID.TID 0000.0001) %MON dynstat_salt_del2            =   7.3412610042000E-07
(PID.TID 0000.0001) %MON advcfl_uvel_max              =   1.7297734755764E-03
(PID.TID 0000.0001) %MON advcfl_vvel_max              =   1.3190060263826E-03
(PID.TID 0000.0001) %MON advcfl_wvel_max              =   3.6917324269273E-03
(PID.TID 0000.0001) %MON advcfl_W_hf_max              =   3.6917324269273E-03
(PID.TID 0000.0001) %MON pe_b_mean                    =  -6.8238720354500E-01
(PID.TID 0000.0001) %MON ke_max                       =   9.6191660277725E-05
(PID.TID 0000.0001) %MON ke_mean                      =   1.3698860741750E-07
(PID.TID 0000.0001) %MON ke_vol                       =   4.6182984484278E+12
(PID.TID 0000.0001) // =======================================================
(PID.TID 0000.0001) // End MONITOR dynamic field statistics
(PID.TID 0000.0001) // =======================================================
(PID.TID 0000.0001) // =======================================================
(PID.TID 0000.0001) // Begin OBCS MONITOR field statistics
(PID.TID 0000.0001) // =======================================================
(PID.TID 0000.0001) %MON obc_N_vVel_max               =  -1.1859659233441E-07
(PID.TID 0000.0001) %MON obc_N_vVel_min               =  -1.1859659233441E-07
(PID.TID 0000.0001) %MON obc_N_vVel_mean              =  -1.1859659233441E-07
(PID.TID 0000.0001) %MON obc_N_vVel_sd                =  -1.0681176656692E-27
(PID.TID 0000.0001) %MON obc_N_vVel_Int               =  -7.8273750940713E+00
(PID.TID 0000.0001) // =======================================================
(PID.TID 0000.0001) // End OBCS MONITOR field statistics
(PID.TID 0000.0001) // =======================================================
 cg2d: Sum(rhs),rhsMax =   3.01022720308735E+00  4.53046494287307E+02
(PID.TID 0000.0001)      cg2d_init_res =   2.27479480531917E-06
(PID.TID 0000.0001)      cg2d_iters(min,last) =      -1      73
(PID.TID 0000.0001)      cg2d_last_res =   9.62564515774568E-12
(PID.TID 0000.0001) // =======================================================
(PID.TID 0000.0001) // Begin MONITOR dynamic field statistics
(PID.TID 0000.0001) // =======================================================
(PID.TID 0000.0001) %MON time_tsnumber                =                   928
(PID.TID 0000.0001) %MON time_secondsf                =   9.2800000000000E+04
(PID.TID 0000.0001) %MON dynstat_eta_max              =   5.7980342151428E+00
(PID.TID 0000.0001) %MON dynstat_eta_min              =  -1.4173713740542E+01
(PID.TID 0000.0001) %MON dynstat_eta_mean             =  -2.5255053358648E+00
(PID.TID 0000.0001) %MON dynstat_eta_sd               =   4.9414925671486E+00
(PID.TID 0000.0001) %MON dynstat_eta_del2             =   1.9058359940131E-01
(PID.TID 0000.0001) %MON dynstat_uvel_max             =   4.1085616697760E-03
(PID.TID 0000.0001) %MON dynstat_uvel_min             =  -1.7340514526807E-02
(PID.TID 0000.0001) %MON dynstat_uvel_mean            =  -4.4628417610155E-10
(PID.TID 0000.0001) %MON dynstat_uvel_sd              =   4.6387546141337E-04
(PID.TID 0000.0001) %MON dynstat_uvel_del2            =   7.3714743508151E-07
(PID.TID 0000.0001) %MON dynstat_vvel_max             =   1.3221765146699E-02
(PID.TID 0000.0001) %MON dynstat_vvel_min             =  -4.7958949444444E-03
(PID.TID 0000.0001) %MON dynstat_vvel_mean            =  -1.1536314928284E-07
(PID.TID 0000.0001) %MON dynstat_vvel_sd              =   2.5357116787347E-04
(PID.TID 0000.0001) %MON dynstat_vvel_del2            =   6.6390122780964E-07
(PID.TID 0000.0001) %MON dynstat_wvel_max             =   7.0522396534714E-04
(PID.TID 0000.0001) %MON dynstat_wvel_min             =  -7.4075145654397E-04
(PID.TID 0000.0001) %MON dynstat_wvel_mean            =   1.8626113683041E-10
(PID.TID 0000.0001) %MON dynstat_wvel_sd              =   1.2912620824388E-05
(PID.TID 0000.0001) %MON dynstat_wvel_del2            =   5.3567208474670E-08
(PID.TID 0000.0001) %MON dynstat_theta_max            =   1.2000000000000E+00
(PID.TID 0000.0001) %MON dynstat_theta_min            =  -1.0000000000000E+00
(PID.TID 0000.0001) %MON dynstat_theta_mean           =   5.6526080008224E-01
(PID.TID 0000.0001) %MON dynstat_theta_sd             =   8.4899533453280E-01
(PID.TID 0000.0001) %MON dynstat_theta_del2           =   1.8654092936513E-06
(PID.TID 0000.0001) %MON dynstat_salt_max             =   3.4700000000000E+01
(PID.TID 0000.0001) %MON dynstat_salt_min             =   3.4000000000000E+01
(PID.TID 0000.0001) %MON dynstat_salt_mean            =   3.4498018192808E+01
(PID.TID 0000.0001) %MON dynstat_salt_sd              =   2.7013360471786E-01
(PID.TID 0000.0001) %MON dynstat_salt_del2            =   7.3572357308432E-07
(PID.TID 0000.0001) %MON advcfl_uvel_max              =   1.7340514526807E-03
(PID.TID 0000.0001) %MON advcfl_vvel_max              =   1.3221765146699E-03
(PID.TID 0000.0001) %MON advcfl_wvel_max              =   3.7037572827198E-03
(PID.TID 0000.0001) %MON advcfl_W_hf_max              =   3.7037572827198E-03
(PID.TID 0000.0001) %MON pe_b_mean                    =  -6.8238598867763E-01
(PID.TID 0000.0001) %MON ke_max                       =   9.6818467245917E-05
(PID.TID 0000.0001) %MON ke_mean                      =   1.3771587947943E-07
(PID.TID 0000.0001) %MON ke_vol                       =   4.6182984733022E+12
(PID.TID 0000.0001) // =======================================================
(PID.TID 0000.0001) // End MONITOR dynamic field statistics
(PID.TID 0000.0001) // =======================================================
(PID.TID 0000.0001) // =======================================================
(PID.TID 0000.0001) // Begin OBCS MONITOR field statistics
(PID.TID 0000.0001) // =======================================================
(PID.TID 0000.0001) %MON obc_N_vVel_max               =  -1.3077154266046E-07
(PID.TID 0000.0001) %MON obc_N_vVel_min               =  -1.3077154266046E-07
(PID.TID 0000.0001) %MON obc_N_vVel_mean              =  -1.3077154266046E-07
(PID.TID 0000.0001) %MON obc_N_vVel_sd                =   1.9539925233403E-14
(PID.TID 0000.0001) %MON obc_N_vVel_Int               =  -8.6309218155903E+00
(PID.TID 0000.0001) // =======================================================
(PID.TID 0000.0001) // End OBCS MONITOR field statistics
(PID.TID 0000.0001) // =======================================================
 cg2d: Sum(rhs),rhsMax =   3.01022223401984E+00  4.53046483205099E+02
(PID.TID 0000.0001)      cg2d_init_res =   2.28162903907280E-06
(PID.TID 0000.0001)      cg2d_iters(min,last) =      -1      73
(PID.TID 0000.0001)      cg2d_last_res =   9.65314348098761E-12
(PID.TID 0000.0001) // =======================================================
(PID.TID 0000.0001) // Begin MONITOR dynamic field statistics
(PID.TID 0000.0001) // =======================================================
(PID.TID 0000.0001) %MON time_tsnumber                =                   929
(PID.TID 0000.0001) %MON time_secondsf                =   9.2900000000000E+04
(PID.TID 0000.0001) %MON dynstat_eta_max              =   5.7980371395342E+00
(PID.TID 0000.0001) %MON dynstat_eta_min              =  -1.4173705387799E+01
(PID.TID 0000.0001) %MON dynstat_eta_mean             =  -2.5255011051639E+00
(PID.TID 0000.0001) %MON dynstat_eta_sd               =   4.9414913010895E+00
(PID.TID 0000.0001) %MON dynstat_eta_del2             =   1.9058360987346E-01
(PID.TID 0000.0001) %MON dynstat_uvel_max             =   4.1133927186348E-03
(PID.TID 0000.0001) %MON dynstat_uvel_min             =  -1.7383361334189E-02
(PID.TID 0000.0001) %MON dynstat_uvel_mean            =  -4.4704134473594E-10
(PID.TID 0000.0001) %MON dynstat_uvel_sd              =   4.6514714695804E-04
(PID.TID 0000.0001) %MON dynstat_uvel_del2            =   7.3890684929649E-07
(PID.TID 0000.0001) %MON dynstat_vvel_max             =   1.3253514025943E-02
(PID.TID 0000.0001) %MON dynstat_vvel_min             =  -4.8072806364168E-03
(PID.TID 0000.0001) %MON dynstat_vvel_mean            =  -1.2735036118592E-07
(PID.TID 0000.0001) %MON dynstat_vvel_sd              =   2.5416622077156E-04
(PID.TID 0000.0001) %MON dynstat_vvel_del2            =   6.6532402175519E-07
(PID.TID 0000.0001) %MON dynstat_wvel_max             =   7.0715413572349E-04
(PID.TID 0000.0001) %MON dynstat_wvel_min             =  -7.4316323209998E-04
(PID.TID 0000.0001) %MON dynstat_wvel_mean            =   1.9250814581765E-10
(PID.TID 0000.0001) %MON dynstat_wvel_sd              =   1.2968552277900E-05
(PID.TID 0000.0001) %MON dynstat_wvel_del2            =   5.3752580723119E-08
(PID.TID 0000.0001) %MON dynstat_theta_max            =   1.2000000000000E+00
(PID.TID 0000.0001) %MON dynstat_theta_min            =  -1.0000000000000E+00
(PID.TID 0000.0001) %MON dynstat_theta_mean           =   5.6526034600158E-01
(PID.TID 0000.0001) %MON dynstat_theta_sd             =   8.4899514833075E-01
(PID.TID 0000.0001) %MON dynstat_theta_del2           =   1.8694266430512E-06
(PID.TID 0000.0001) %MON dynstat_salt_max             =   3.4700000000000E+01
(PID.TID 0000.0001) %MON dynstat_salt_min             =   3.4000000000000E+01
(PID.TID 0000.0001) %MON dynstat_salt_mean            =   3.4498018011824E+01
(PID.TID 0000.0001) %MON dynstat_salt_sd              =   2.7013353565785E-01
(PID.TID 0000.0001) %MON dynstat_salt_del2            =   7.3732737502610E-07
(PID.TID 0000.0001) %MON advcfl_uvel_max              =   1.7383361334189E-03
(PID.TID 0000.0001) %MON advcfl_vvel_max              =   1.3253514025943E-03
(PID.TID 0000.0001) %MON advcfl_wvel_max              =   3.7158161604999E-03
(PID.TID 0000.0001) %MON advcfl_W_hf_max              =   3.7158161604999E-03
(PID.TID 0000.0001) %MON pe_b_mean                    =  -6.8238476875962E-01
(PID.TID 0000.0001) %MON ke_max                       =   9.7448868310043E-05
(PID.TID 0000.0001) %MON ke_mean                      =   1.3844654949088E-07
(PID.TID 0000.0001) %MON ke_vol                       =   4.6182984983050E+12
(PID.TID 0000.0001) // =======================================================
(PID.TID 0000.0001) // End MONITOR dynamic field statistics
(PID.TID 0000.0001) // =======================================================
(PID.TID 0000.0001) // =======================================================
(PID.TID 0000.0001) // Begin OBCS MONITOR field statistics
(PID.TID 0000.0001) // =======================================================
(PID.TID 0000.0001) %MON obc_N_vVel_max               =  -1.4281468920540E-07
(PID.TID 0000.0001) %MON obc_N_vVel_min               =  -1.4281468920540E-07
(PID.TID 0000.0001) %MON obc_N_vVel_mean              =  -1.4281468920540E-07
(PID.TID 0000.0001) %MON obc_N_vVel_sd                =   2.8086667748614E-14
(PID.TID 0000.0001) %MON obc_N_vVel_Int               =  -9.4257694875563E+00
(PID.TID 0000.0001) // =======================================================
(PID.TID 0000.0001) // End OBCS MONITOR field statistics
(PID.TID 0000.0001) // =======================================================
 cg2d: Sum(rhs),rhsMax =   3.01021723940469E+00  4.53046472149371E+02
(PID.TID 0000.0001)      cg2d_init_res =   2.28809056124296E-06
(PID.TID 0000.0001)      cg2d_iters(min,last) =      -1      73
(PID.TID 0000.0001)      cg2d_last_res =   9.68080961596209E-12
(PID.TID 0000.0001) // =======================================================
(PID.TID 0000.0001) // Begin MONITOR dynamic field statistics
(PID.TID 0000.0001) // =======================================================
(PID.TID 0000.0001) %MON time_tsnumber                =                   930
(PID.TID 0000.0001) %MON time_secondsf                =   9.3000000000000E+04
(PID.TID 0000.0001) %MON dynstat_eta_max              =   5.7980400866820E+00
(PID.TID 0000.0001) %MON dynstat_eta_min              =  -1.4173696987597E+01
(PID.TID 0000.0001) %MON dynstat_eta_mean             =  -2.5254968531769E+00
(PID.TID 0000.0001) %MON dynstat_eta_sd               =   4.9414900288652E+00
(PID.TID 0000.0001) %MON dynstat_eta_del2             =   1.9058362037357E-01
(PID.TID 0000.0001) %MON dynstat_uvel_max             =   4.1182183288768E-03
(PID.TID 0000.0001) %MON dynstat_uvel_min             =  -1.7426275102824E-02
(PID.TID 0000.0001) %MON dynstat_uvel_mean            =  -4.5017811132432E-10
(PID.TID 0000.0001) %MON dynstat_uvel_sd              =   4.6642194689793E-04
(PID.TID 0000.0001) %MON dynstat_uvel_del2            =   7.4067105055310E-07
(PID.TID 0000.0001) %MON dynstat_vvel_max             =   1.3285306848405E-02
(PID.TID 0000.0001) %MON dynstat_vvel_min             =  -4.8186873087133E-03
(PID.TID 0000.0001) %MON dynstat_vvel_mean            =  -1.3911466921154E-07
(PID.TID 0000.0001) %MON dynstat_vvel_sd              =   2.5476095708051E-04
(PID.TID 0000.0001) %MON dynstat_vvel_del2            =   6.6674406317352E-07
(PID.TID 0000.0001) %MON dynstat_wvel_max             =   7.0908800866837E-04
(PID.TID 0000.0001) %MON dynstat_wvel_min             =  -7.4558182676970E-04
(PID.TID 0000.0001) %MON dynstat_wvel_mean            =   1.9907731774470E-10
(PID.TID 0000.0001) %MON dynstat_wvel_sd              =   1.3020574771223E-05
(PID.TID 0000.0001) %MON dynstat_wvel_del2            =   5.3904142307665E-08
(PID.TID 0000.0001) %MON dynstat_theta_max            =   1.2000000000000E+00
(PID.TID 0000.0001) %MON dynstat_theta_min            =  -1.0000000000000E+00
(PID.TID 0000.0001) %MON dynstat_theta_mean           =   5.6525989103125E-01
(PID.TID 0000.0001) %MON dynstat_theta_sd             =   8.4899496167272E-01
(PID.TID 0000.0001) %MON dynstat_theta_del2           =   1.8734642142749E-06
(PID.TID 0000.0001) %MON dynstat_salt_max             =   3.4700000000000E+01
(PID.TID 0000.0001) %MON dynstat_salt_min             =   3.4000000000000E+01
(PID.TID 0000.0001) %MON dynstat_salt_mean            =   3.4498017830482E+01
(PID.TID 0000.0001) %MON dynstat_salt_sd              =   2.7013346642079E-01
(PID.TID 0000.0001) %MON dynstat_salt_del2            =   7.3893794855613E-07
(PID.TID 0000.0001) %MON advcfl_uvel_max              =   1.7426275102824E-03
(PID.TID 0000.0001) %MON advcfl_vvel_max              =   1.3285306848405E-03
(PID.TID 0000.0001) %MON advcfl_wvel_max              =   3.7279091338485E-03
(PID.TID 0000.0001) %MON advcfl_W_hf_max              =   3.7279091338485E-03
(PID.TID 0000.0001) %MON pe_b_mean                    =  -6.8238354383916E-01
(PID.TID 0000.0001) %MON ke_max                       =   9.8082879933351E-05
(PID.TID 0000.0001) %MON ke_mean                      =   1.3918050513499E-07
(PID.TID 0000.0001) %MON ke_vol                       =   4.6182985234353E+12
(PID.TID 0000.0001) // =======================================================
(PID.TID 0000.0001) // End MONITOR dynamic field statistics
(PID.TID 0000.0001) // =======================================================
(PID.TID 0000.0001) // =======================================================
(PID.TID 0000.0001) // Begin OBCS MONITOR field statistics
(PID.TID 0000.0001) // =======================================================
(PID.TID 0000.0001) %MON obc_N_vVel_max               =  -1.5466414135235E-07
(PID.TID 0000.0001) %MON obc_N_vVel_min               =  -1.5466414135235E-07
(PID.TID 0000.0001) %MON obc_N_vVel_mean              =  -1.5466414135235E-07
(PID.TID 0000.0001) %MON obc_N_vVel_sd                =   2.8421709430404E-14
(PID.TID 0000.0001) %MON obc_N_vVel_Int               =  -1.0207833329255E+01
(PID.TID 0000.0001) // =======================================================
(PID.TID 0000.0001) // End OBCS MONITOR field statistics
(PID.TID 0000.0001) // =======================================================
 cg2d: Sum(rhs),rhsMax =   3.01021221938784E+00  4.53046461146123E+02
(PID.TID 0000.0001)      cg2d_init_res =   2.29411978842227E-06
(PID.TID 0000.0001)      cg2d_iters(min,last) =      -1      73
(PID.TID 0000.0001)      cg2d_last_res =   9.70883225290614E-12
(PID.TID 0000.0001) // =======================================================
(PID.TID 0000.0001) // Begin MONITOR dynamic field statistics
(PID.TID 0000.0001) // =======================================================
(PID.TID 0000.0001) %MON time_tsnumber                =                   931
(PID.TID 0000.0001) %MON time_secondsf                =   9.3100000000000E+04
(PID.TID 0000.0001) %MON dynstat_eta_max              =   5.7980430561324E+00
(PID.TID 0000.0001) %MON dynstat_eta_min              =  -1.4173688540471E+01
(PID.TID 0000.0001) %MON dynstat_eta_mean             =  -2.5254925801713E+00
(PID.TID 0000.0001) %MON dynstat_eta_sd               =   4.9414887506291E+00
(PID.TID 0000.0001) %MON dynstat_eta_del2             =   1.9058363090242E-01
(PID.TID 0000.0001) %MON dynstat_uvel_max             =   4.1230384656732E-03
(PID.TID 0000.0001) %MON dynstat_uvel_min             =  -1.7469255756636E-02
(PID.TID 0000.0001) %MON dynstat_uvel_mean            =  -4.5573723208092E-10
(PID.TID 0000.0001) %MON dynstat_uvel_sd              =   4.6769986653557E-04
(PID.TID 0000.0001) %MON dynstat_uvel_del2            =   7.4244005093629E-07
(PID.TID 0000.0001) %MON dynstat_vvel_max             =   1.3317143560605E-02
(PID.TID 0000.0001) %MON dynstat_vvel_min             =  -4.8301149925400E-03
(PID.TID 0000.0001) %MON dynstat_vvel_mean            =  -1.5059218337761E-07
(PID.TID 0000.0001) %MON dynstat_vvel_sd              =   2.5535494013364E-04
(PID.TID 0000.0001) %MON dynstat_vvel_del2            =   6.6816123285677E-07
(PID.TID 0000.0001) %MON dynstat_wvel_max             =   7.1102558638059E-04
(PID.TID 0000.0001) %MON dynstat_wvel_min             =  -7.4800725525622E-04
(PID.TID 0000.0001) %MON dynstat_wvel_mean            =   2.0594951470215E-10
(PID.TID 0000.0001) %MON dynstat_wvel_sd              =   1.3067973579802E-05
(PID.TID 0000.0001) %MON dynstat_wvel_del2            =   5.4019432057850E-08
(PID.TID 0000.0001) %MON dynstat_theta_max            =   1.2000000000000E+00
(PID.TID 0000.0001) %MON dynstat_theta_min            =  -1.0000000000000E+00
(PID.TID 0000.0001) %MON dynstat_theta_mean           =   5.6525943517092E-01
(PID.TID 0000.0001) %MON dynstat_theta_sd             =   8.4899477456276E-01
(PID.TID 0000.0001) %MON dynstat_theta_del2           =   1.8775228459227E-06
(PID.TID 0000.0001) %MON dynstat_salt_max             =   3.4700000000000E+01
(PID.TID 0000.0001) %MON dynstat_salt_min             =   3.4000000000000E+01
(PID.TID 0000.0001) %MON dynstat_salt_mean            =   3.4498017648783E+01
(PID.TID 0000.0001) %MON dynstat_salt_sd              =   2.7013339700807E-01
(PID.TID 0000.0001) %MON dynstat_salt_del2            =   7.4055550177304E-07
(PID.TID 0000.0001) %MON advcfl_uvel_max              =   1.7469255756636E-03
(PID.TID 0000.0001) %MON advcfl_vvel_max              =   1.3317143560605E-03
(PID.TID 0000.0001) %MON advcfl_wvel_max              =   3.7400362762811E-03
(PID.TID 0000.0001) %MON advcfl_W_hf_max              =   3.7400362762811E-03
(PID.TID 0000.0001) %MON pe_b_mean                    =  -6.8238231397868E-01
(PID.TID 0000.0001) %MON ke_max                       =   9.8720518628623E-05
(PID.TID 0000.0001) %MON ke_mean                      =   1.3991764844826E-07
(PID.TID 0000.0001) %MON ke_vol                       =   4.6182985486921E+12
(PID.TID 0000.0001) // =======================================================
(PID.TID 0000.0001) // End MONITOR dynamic field statistics
(PID.TID 0000.0001) // =======================================================
(PID.TID 0000.0001) // =======================================================
(PID.TID 0000.0001) // Begin OBCS MONITOR field statistics
(PID.TID 0000.0001) // =======================================================
(PID.TID 0000.0001) %MON obc_N_vVel_max               =  -1.6625688826036E-07
(PID.TID 0000.0001) %MON obc_N_vVel_min               =  -1.6625688826036E-07
(PID.TID 0000.0001) %MON obc_N_vVel_mean              =  -1.6625688826036E-07
(PID.TID 0000.0001) %MON obc_N_vVel_sd                =  -1.5051466071617E-27
(PID.TID 0000.0001) %MON obc_N_vVel_Int               =  -1.0972954625184E+01
(PID.TID 0000.0001) // =======================================================
(PID.TID 0000.0001) // End OBCS MONITOR field statistics
(PID.TID 0000.0001) // =======================================================
 cg2d: Sum(rhs),rhsMax =   3.01020717420059E+00  4.53046450221593E+02
(PID.TID 0000.0001)      cg2d_init_res =   2.29969208557940E-06
(PID.TID 0000.0001)      cg2d_iters(min,last) =      -1      73
(PID.TID 0000.0001)      cg2d_last_res =   9.73716657550132E-12
(PID.TID 0000.0001) // =======================================================
(PID.TID 0000.0001) // Begin MONITOR dynamic field statistics
(PID.TID 0000.0001) // =======================================================
(PID.TID 0000.0001) %MON time_tsnumber                =                   932
(PID.TID 0000.0001) %MON time_secondsf                =   9.3200000000000E+04
(PID.TID 0000.0001) %MON dynstat_eta_max              =   5.7980460473188E+00
(PID.TID 0000.0001) %MON dynstat_eta_min              =  -1.4173680047082E+01
(PID.TID 0000.0001) %MON dynstat_eta_mean             =  -2.5254882864873E+00
(PID.TID 0000.0001) %MON dynstat_eta_sd               =   4.9414874665548E+00
(PID.TID 0000.0001) %MON dynstat_eta_del2             =   1.9058364146068E-01
(PID.TID 0000.0001) %MON dynstat_uvel_max             =   4.1278530944453E-03
(PID.TID 0000.0001) %MON dynstat_uvel_min             =  -1.7512303218705E-02
(PID.TID 0000.0001) %MON dynstat_uvel_mean            =  -4.6375544726268E-10
(PID.TID 0000.0001) %MON dynstat_uvel_sd              =   4.6898091073436E-04
(PID.TID 0000.0001) %MON dynstat_uvel_del2            =   7.4421386170461E-07
(PID.TID 0000.0001) %MON dynstat_vvel_max             =   1.3349024108873E-02
(PID.TID 0000.0001) %MON dynstat_vvel_min             =  -4.8415637189319E-03
(PID.TID 0000.0001) %MON dynstat_vvel_mean            =  -1.6171837612053E-07
(PID.TID 0000.0001) %MON dynstat_vvel_sd              =   2.5594780449039E-04
(PID.TID 0000.0001) %MON dynstat_vvel_del2            =   6.6957624377877E-07
(PID.TID 0000.0001) %MON dynstat_wvel_max             =   7.1296687102674E-04
(PID.TID 0000.0001) %MON dynstat_wvel_min             =  -7.5043953226265E-04
(PID.TID 0000.0001) %MON dynstat_wvel_mean            =   2.1310370701169E-10
(PID.TID 0000.0001) %MON dynstat_wvel_sd              =   1.3110414711003E-05
(PID.TID 0000.0001) %MON dynstat_wvel_del2            =   5.4099766596952E-08
(PID.TID 0000.0001) %MON dynstat_theta_max            =   1.2000000000000E+00
(PID.TID 0000.0001) %MON dynstat_theta_min            =  -1.0000000000000E+00
(PID.TID 0000.0001) %MON dynstat_theta_mean           =   5.6525897842006E-01
(PID.TID 0000.0001) %MON dynstat_theta_sd             =   8.4899458700423E-01
(PID.TID 0000.0001) %MON dynstat_theta_del2           =   1.8816024413815E-06
(PID.TID 0000.0001) %MON dynstat_salt_max             =   3.4700000000000E+01
(PID.TID 0000.0001) %MON dynstat_salt_min             =   3.4000000000000E+01
(PID.TID 0000.0001) %MON dynstat_salt_mean            =   3.4498017466726E+01
(PID.TID 0000.0001) %MON dynstat_salt_sd              =   2.7013332742064E-01
(PID.TID 0000.0001) %MON dynstat_salt_del2            =   7.4218000384789E-07
(PID.TID 0000.0001) %MON advcfl_uvel_max              =   1.7512303218705E-03
(PID.TID 0000.0001) %MON advcfl_vvel_max              =   1.3349024108873E-03
(PID.TID 0000.0001) %MON advcfl_wvel_max              =   3.7521976613133E-03
(PID.TID 0000.0001) %MON advcfl_W_hf_max              =   3.7521976613133E-03
(PID.TID 0000.0001) %MON pe_b_mean                    =  -6.8238107925478E-01
(PID.TID 0000.0001) %MON ke_max                       =   9.9361800958756E-05
(PID.TID 0000.0001) %MON ke_mean                      =   1.4065789851078E-07
(PID.TID 0000.0001) %MON ke_vol                       =   4.6182985740738E+12
(PID.TID 0000.0001) // =======================================================
(PID.TID 0000.0001) // End MONITOR dynamic field statistics
(PID.TID 0000.0001) // =======================================================
(PID.TID 0000.0001) // =======================================================
(PID.TID 0000.0001) // Begin OBCS MONITOR field statistics
(PID.TID 0000.0001) // =======================================================
(PID.TID 0000.0001) %MON obc_N_vVel_max               =  -1.7752920893132E-07
(PID.TID 0000.0001) %MON obc_N_vVel_min               =  -1.7752920893132E-07
(PID.TID 0000.0001) %MON obc_N_vVel_mean              =  -1.7752920893132E-07
(PID.TID 0000.0001) %MON obc_N_vVel_sd                =   1.2306961192855E-14
(PID.TID 0000.0001) %MON obc_N_vVel_Int               =  -1.1716927789467E+01
(PID.TID 0000.0001) // =======================================================
(PID.TID 0000.0001) // End OBCS MONITOR field statistics
(PID.TID 0000.0001) // =======================================================
 cg2d: Sum(rhs),rhsMax =   3.01020210415831E+00  4.53046439402300E+02
(PID.TID 0000.0001)      cg2d_init_res =   2.30482148410909E-06
(PID.TID 0000.0001)      cg2d_iters(min,last) =      -1      73
(PID.TID 0000.0001)      cg2d_last_res =   9.76583756444880E-12
(PID.TID 0000.0001) // =======================================================
(PID.TID 0000.0001) // Begin MONITOR dynamic field statistics
(PID.TID 0000.0001) // =======================================================
(PID.TID 0000.0001) %MON time_tsnumber                =                   933
(PID.TID 0000.0001) %MON time_secondsf                =   9.3300000000000E+04
(PID.TID 0000.0001) %MON dynstat_eta_max              =   5.7980490595471E+00
(PID.TID 0000.0001) %MON dynstat_eta_min              =  -1.4173671508209E+01
(PID.TID 0000.0001) %MON dynstat_eta_mean             =  -2.5254839725375E+00
(PID.TID 0000.0001) %MON dynstat_eta_sd               =   4.9414861768401E+00
(PID.TID 0000.0001) %MON dynstat_eta_del2             =   1.9058365204905E-01
(PID.TID 0000.0001) %MON dynstat_uvel_max             =   4.1326621807407E-03
(PID.TID 0000.0001) %MON dynstat_uvel_min             =  -1.7555417411080E-02
(PID.TID 0000.0001) %MON dynstat_uvel_mean            =  -4.7426201871893E-10
(PID.TID 0000.0001) %MON dynstat_uvel_sd              =   4.7026508386214E-04
(PID.TID 0000.0001) %MON dynstat_uvel_del2            =   7.4599249338095E-07
(PID.TID 0000.0001) %MON dynstat_vvel_max             =   1.3380948439070E-02
(PID.TID 0000.0001) %MON dynstat_vvel_min             =  -4.8530335186978E-03
(PID.TID 0000.0001) %MON dynstat_vvel_mean            =  -1.7242844886684E-07
(PID.TID 0000.0001) %MON dynstat_vvel_sd              =   2.5653926024261E-04
(PID.TID 0000.0001) %MON dynstat_vvel_del2            =   6.7099057615158E-07
(PID.TID 0000.0001) %MON dynstat_wvel_max             =   7.1491186474870E-04
(PID.TID 0000.0001) %MON dynstat_wvel_min             =  -7.5287867242912E-04
(PID.TID 0000.0001) %MON dynstat_wvel_mean            =   2.2051652258092E-10
(PID.TID 0000.0001) %MON dynstat_wvel_sd              =   1.3147928229161E-05
(PID.TID 0000.0001) %MON dynstat_wvel_del2            =   5.4150009432774E-08
(PID.TID 0000.0001) %MON dynstat_theta_max            =   1.2000000000000E+00
(PID.TID 0000.0001) %MON dynstat_theta_min            =  -1.0000000000000E+00
(PID.TID 0000.0001) %MON dynstat_theta_mean           =   5.6525852077778E-01
(PID.TID 0000.0001) %MON dynstat_theta_sd             =   8.4899439900033E-01
(PID.TID 0000.0001) %MON dynstat_theta_del2           =   1.8857020667099E-06
(PID.TID 0000.0001) %MON dynstat_salt_max             =   3.4700000000000E+01
(PID.TID 0000.0001) %MON dynstat_salt_min             =   3.4000000000000E+01
(PID.TID 0000.0001) %MON dynstat_salt_mean            =   3.4498017284311E+01
(PID.TID 0000.0001) %MON dynstat_salt_sd              =   2.7013325765965E-01
(PID.TID 0000.0001) %MON dynstat_salt_del2            =   7.4381120740217E-07
(PID.TID 0000.0001) %MON advcfl_uvel_max              =   1.7555417411080E-03
(PID.TID 0000.0001) %MON advcfl_vvel_max              =   1.3380948439070E-03
(PID.TID 0000.0001) %MON advcfl_wvel_max              =   3.7643933621456E-03
(PID.TID 0000.0001) %MON advcfl_W_hf_max              =   3.7643933621456E-03
(PID.TID 0000.0001) %MON pe_b_mean                    =  -6.8237983975834E-01
(PID.TID 0000.0001) %MON ke_max                       =   1.0000674353469E-04
(PID.TID 0000.0001) %MON ke_mean                      =   1.4140119273760E-07
(PID.TID 0000.0001) %MON ke_vol                       =   4.6182985995783E+12
(PID.TID 0000.0001) // =======================================================
(PID.TID 0000.0001) // End MONITOR dynamic field statistics
(PID.TID 0000.0001) // =======================================================
(PID.TID 0000.0001) // =======================================================
(PID.TID 0000.0001) // Begin OBCS MONITOR field statistics
(PID.TID 0000.0001) // =======================================================
(PID.TID 0000.0001) %MON obc_N_vVel_max               =  -1.8841696932979E-07
(PID.TID 0000.0001) %MON obc_N_vVel_min               =  -1.8841696932979E-07
(PID.TID 0000.0001) %MON obc_N_vVel_mean              =  -1.8841696932979E-07
(PID.TID 0000.0001) %MON obc_N_vVel_sd                =  -1.2116903504195E-27
(PID.TID 0000.0001) %MON obc_N_vVel_Int               =  -1.2435519975766E+01
(PID.TID 0000.0001) // =======================================================
(PID.TID 0000.0001) // End OBCS MONITOR field statistics
(PID.TID 0000.0001) // =======================================================
 cg2d: Sum(rhs),rhsMax =   3.01019700965719E+00  4.53046428715062E+02
(PID.TID 0000.0001)      cg2d_init_res =   2.30955534241816E-06
(PID.TID 0000.0001)      cg2d_iters(min,last) =      -1      73
(PID.TID 0000.0001)      cg2d_last_res =   9.79491569138027E-12
(PID.TID 0000.0001) // =======================================================
(PID.TID 0000.0001) // Begin MONITOR dynamic field statistics
(PID.TID 0000.0001) // =======================================================
(PID.TID 0000.0001) %MON time_tsnumber                =                   934
(PID.TID 0000.0001) %MON time_secondsf                =   9.3400000000000E+04
(PID.TID 0000.0001) %MON dynstat_eta_max              =   5.7980520919963E+00
(PID.TID 0000.0001) %MON dynstat_eta_min              =  -1.4173662924761E+01
(PID.TID 0000.0001) %MON dynstat_eta_mean             =  -2.5254796388036E+00
(PID.TID 0000.0001) %MON dynstat_eta_sd               =   4.9414848817031E+00
(PID.TID 0000.0001) %MON dynstat_eta_del2             =   1.9058366266822E-01
(PID.TID 0000.0001) %MON dynstat_uvel_max             =   4.1374656904996E-03
(PID.TID 0000.0001) %MON dynstat_uvel_min             =  -1.7598598254927E-02
(PID.TID 0000.0001) %MON dynstat_uvel_mean            =  -4.8727209071159E-10
(PID.TID 0000.0001) %MON dynstat_uvel_sd              =   4.7155238974609E-04
(PID.TID 0000.0001) %MON dynstat_uvel_del2            =   7.4777595594170E-07
(PID.TID 0000.0001) %MON dynstat_vvel_max             =   1.3412916496804E-02
(PID.TID 0000.0001) %MON dynstat_vvel_min             =  -4.8645244225298E-03
(PID.TID 0000.0001) %MON dynstat_vvel_mean            =  -1.8265772317518E-07
(PID.TID 0000.0001) %MON dynstat_vvel_sd              =   2.5712909200100E-04
(PID.TID 0000.0001) %MON dynstat_vvel_del2            =   6.7240633518622E-07
(PID.TID 0000.0001) %MON dynstat_wvel_max             =   7.1686056967143E-04
(PID.TID 0000.0001) %MON dynstat_wvel_min             =  -7.5532469040979E-04
(PID.TID 0000.0001) %MON dynstat_wvel_mean            =   2.2816213268367E-10
(PID.TID 0000.0001) %MON dynstat_wvel_sd              =   1.3180859136736E-05
(PID.TID 0000.0001) %MON dynstat_wvel_del2            =   5.4178007550361E-08
(PID.TID 0000.0001) %MON dynstat_theta_max            =   1.2000000000000E+00
(PID.TID 0000.0001) %MON dynstat_theta_min            =  -1.0000000000000E+00
(PID.TID 0000.0001) %MON dynstat_theta_mean           =   5.6525806224250E-01
(PID.TID 0000.0001) %MON dynstat_theta_sd             =   8.4899421055533E-01
(PID.TID 0000.0001) %MON dynstat_theta_del2           =   1.8898201198450E-06
(PID.TID 0000.0001) %MON dynstat_salt_max             =   3.4700000000000E+01
(PID.TID 0000.0001) %MON dynstat_salt_min             =   3.4000000000000E+01
(PID.TID 0000.0001) %MON dynstat_salt_mean            =   3.4498017101537E+01
(PID.TID 0000.0001) %MON dynstat_salt_sd              =   2.7013318772621E-01
(PID.TID 0000.0001) %MON dynstat_salt_del2            =   7.4544869314988E-07
(PID.TID 0000.0001) %MON advcfl_uvel_max              =   1.7598598254927E-03
(PID.TID 0000.0001) %MON advcfl_vvel_max              =   1.3412916496804E-03
(PID.TID 0000.0001) %MON advcfl_wvel_max              =   3.7766234520490E-03
(PID.TID 0000.0001) %MON advcfl_W_hf_max              =   3.7766234520490E-03
(PID.TID 0000.0001) %MON pe_b_mean                    =  -6.8237859559366E-01
(PID.TID 0000.0001) %MON ke_max                       =   1.0065536301794E-04
(PID.TID 0000.0001) %MON ke_mean                      =   1.4214748682196E-07
(PID.TID 0000.0001) %MON ke_vol                       =   4.6182986252031E+12
(PID.TID 0000.0001) // =======================================================
(PID.TID 0000.0001) // End MONITOR dynamic field statistics
(PID.TID 0000.0001) // =======================================================
(PID.TID 0000.0001) // =======================================================
(PID.TID 0000.0001) // Begin OBCS MONITOR field statistics
(PID.TID 0000.0001) // =======================================================
(PID.TID 0000.0001) %MON obc_N_vVel_max               =  -1.9885599551746E-07
(PID.TID 0000.0001) %MON obc_N_vVel_min               =  -1.9885599551747E-07
(PID.TID 0000.0001) %MON obc_N_vVel_mean              =  -1.9885599551746E-07
(PID.TID 0000.0001) %MON obc_N_vVel_sd                =   3.8181342994301E-14
(PID.TID 0000.0001) %MON obc_N_vVel_Int               =  -1.3124495704152E+01
(PID.TID 0000.0001) // =======================================================
(PID.TID 0000.0001) // End OBCS MONITOR field statistics
(PID.TID 0000.0001) // =======================================================
 cg2d: Sum(rhs),rhsMax =   3.01019189117686E+00  4.53046418186671E+02
(PID.TID 0000.0001)      cg2d_init_res =   2.31397145857651E-06
(PID.TID 0000.0001)      cg2d_iters(min,last) =      -1      73
(PID.TID 0000.0001)      cg2d_last_res =   9.82449922384649E-12
(PID.TID 0000.0001) // =======================================================
(PID.TID 0000.0001) // Begin MONITOR dynamic field statistics
(PID.TID 0000.0001) // =======================================================
(PID.TID 0000.0001) %MON time_tsnumber                =                   935
(PID.TID 0000.0001) %MON time_secondsf                =   9.3500000000000E+04
(PID.TID 0000.0001) %MON dynstat_eta_max              =   5.7980551437280E+00
(PID.TID 0000.0001) %MON dynstat_eta_min              =  -1.4173654297767E+01
(PID.TID 0000.0001) %MON dynstat_eta_mean             =  -2.5254752858375E+00
(PID.TID 0000.0001) %MON dynstat_eta_sd               =   4.9414835813852E+00
(PID.TID 0000.0001) %MON dynstat_eta_del2             =   1.9058367331903E-01
(PID.TID 0000.0001) %MON dynstat_uvel_max             =   4.1422635897170E-03
(PID.TID 0000.0001) %MON dynstat_uvel_min             =  -1.7641845670419E-02
(PID.TID 0000.0001) %MON dynstat_uvel_mean            =  -5.0279006936905E-10
(PID.TID 0000.0001) %MON dynstat_uvel_sd              =   4.7284283163766E-04
(PID.TID 0000.0001) %MON dynstat_uvel_del2            =   7.4956425901273E-07
(PID.TID 0000.0001) %MON dynstat_vvel_max             =   1.3444928227186E-02
(PID.TID 0000.0001) %MON dynstat_vvel_min             =  -4.8760364610105E-03
(PID.TID 0000.0001) %MON dynstat_vvel_mean            =  -1.9234206174818E-07
(PID.TID 0000.0001) %MON dynstat_vvel_sd              =   2.5771715335261E-04
(PID.TID 0000.0001) %MON dynstat_vvel_del2            =   6.7382604723800E-07
(PID.TID 0000.0001) %MON dynstat_wvel_max             =   7.1881298786098E-04
(PID.TID 0000.0001) %MON dynstat_wvel_min             =  -7.5777760080768E-04
(PID.TID 0000.0001) %MON dynstat_wvel_mean            =   2.3601248721667E-10
(PID.TID 0000.0001) %MON dynstat_wvel_sd              =   1.3209792218641E-05
(PID.TID 0000.0001) %MON dynstat_wvel_del2            =   5.4193747517581E-08
(PID.TID 0000.0001) %MON dynstat_theta_max            =   1.2000000000000E+00
(PID.TID 0000.0001) %MON dynstat_theta_min            =  -1.0000000000000E+00
(PID.TID 0000.0001) %MON dynstat_theta_mean           =   5.6525760281209E-01
(PID.TID 0000.0001) %MON dynstat_theta_sd             =   8.4899402167098E-01
(PID.TID 0000.0001) %MON dynstat_theta_del2           =   1.8939543526696E-06
(PID.TID 0000.0001) %MON dynstat_salt_max             =   3.4700000000000E+01
(PID.TID 0000.0001) %MON dynstat_salt_min             =   3.4000000000000E+01
(PID.TID 0000.0001) %MON dynstat_salt_mean            =   3.4498016918404E+01
(PID.TID 0000.0001) %MON dynstat_salt_sd              =   2.7013311762101E-01
(PID.TID 0000.0001) %MON dynstat_salt_del2            =   7.4709192219008E-07
(PID.TID 0000.0001) %MON advcfl_uvel_max              =   1.7641845670419E-03
(PID.TID 0000.0001) %MON advcfl_vvel_max              =   1.3444928227186E-03
(PID.TID 0000.0001) %MON advcfl_wvel_max              =   3.7888880040384E-03
(PID.TID 0000.0001) %MON advcfl_W_hf_max              =   3.7888880040384E-03
(PID.TID 0000.0001) %MON pe_b_mean                    =  -6.8237734687867E-01
(PID.TID 0000.0001) %MON ke_max                       =   1.0130767611858E-04
(PID.TID 0000.0001) %MON ke_mean                      =   1.4289675351113E-07
(PID.TID 0000.0001) %MON ke_vol                       =   4.6182986509455E+12
(PID.TID 0000.0001) // =======================================================
(PID.TID 0000.0001) // End MONITOR dynamic field statistics
(PID.TID 0000.0001) // =======================================================
(PID.TID 0000.0001) // =======================================================
(PID.TID 0000.0001) // Begin OBCS MONITOR field statistics
(PID.TID 0000.0001) // =======================================================
(PID.TID 0000.0001) %MON obc_N_vVel_max               =  -2.0878250030323E-07
(PID.TID 0000.0001) %MON obc_N_vVel_min               =  -2.0878250030324E-07
(PID.TID 0000.0001) %MON obc_N_vVel_mean              =  -2.0878250030324E-07
(PID.TID 0000.0001) %MON obc_N_vVel_sd                =  -1.6976286680356E-27
(PID.TID 0000.0001) %MON obc_N_vVel_Int               =  -1.3779645020014E+01
(PID.TID 0000.0001) // =======================================================
(PID.TID 0000.0001) // End OBCS MONITOR field statistics
(PID.TID 0000.0001) // =======================================================
 cg2d: Sum(rhs),rhsMax =   3.01018674928241E+00  4.53046407843789E+02
(PID.TID 0000.0001)      cg2d_init_res =   2.31816973325205E-06
(PID.TID 0000.0001)      cg2d_iters(min,last) =      -1      73
(PID.TID 0000.0001)      cg2d_last_res =   9.85463511209942E-12
(PID.TID 0000.0001) // =======================================================
(PID.TID 0000.0001) // Begin MONITOR dynamic field statistics
(PID.TID 0000.0001) // =======================================================
(PID.TID 0000.0001) %MON time_tsnumber                =                   936
(PID.TID 0000.0001) %MON time_secondsf                =   9.3600000000000E+04
(PID.TID 0000.0001) %MON dynstat_eta_max              =   5.7980582136733E+00
(PID.TID 0000.0001) %MON dynstat_eta_min              =  -1.4173645628373E+01
(PID.TID 0000.0001) %MON dynstat_eta_mean             =  -2.5254709142618E+00
(PID.TID 0000.0001) %MON dynstat_eta_sd               =   4.9414822761488E+00
(PID.TID 0000.0001) %MON dynstat_eta_del2             =   1.9058368400224E-01
(PID.TID 0000.0001) %MON dynstat_uvel_max             =   4.1470558447347E-03
(PID.TID 0000.0001) %MON dynstat_uvel_min             =  -1.7685159576724E-02
(PID.TID 0000.0001) %MON dynstat_uvel_mean            =  -5.2080566093535E-10
(PID.TID 0000.0001) %MON dynstat_uvel_sd              =   4.7413641217998E-04
(PID.TID 0000.0001) %MON dynstat_uvel_del2            =   7.5135741204588E-07
(PID.TID 0000.0001) %MON dynstat_vvel_max             =   1.3476983574887E-02
(PID.TID 0000.0001) %MON dynstat_vvel_min             =  -4.8875696646480E-03
(PID.TID 0000.0001) %MON dynstat_vvel_mean            =  -2.0141831206223E-07
(PID.TID 0000.0001) %MON dynstat_vvel_sd              =   2.5830335795162E-04
(PID.TID 0000.0001) %MON dynstat_vvel_del2            =   6.7525241614173E-07
(PID.TID 0000.0001) %MON dynstat_wvel_max             =   7.2076912138983E-04
(PID.TID 0000.0001) %MON dynstat_wvel_min             =  -7.6023741823199E-04
(PID.TID 0000.0001) %MON dynstat_wvel_mean            =   2.4403712415464E-10
(PID.TID 0000.0001) %MON dynstat_wvel_sd              =   1.3235459381471E-05
(PID.TID 0000.0001) %MON dynstat_wvel_del2            =   5.4208307479878E-08
(PID.TID 0000.0001) %MON dynstat_theta_max            =   1.2000000000000E+00
(PID.TID 0000.0001) %MON dynstat_theta_min            =  -1.0000000000000E+00
(PID.TID 0000.0001) %MON dynstat_theta_mean           =   5.6525714248407E-01
(PID.TID 0000.0001) %MON dynstat_theta_sd             =   8.4899383234556E-01
(PID.TID 0000.0001) %MON dynstat_theta_del2           =   1.8981027212713E-06
(PID.TID 0000.0001) %MON dynstat_salt_max             =   3.4700000000000E+01
(PID.TID 0000.0001) %MON dynstat_salt_min             =   3.4000000000000E+01
(PID.TID 0000.0001) %MON dynstat_salt_mean            =   3.4498016734910E+01
(PID.TID 0000.0001) %MON dynstat_salt_sd              =   2.7013304734328E-01
(PID.TID 0000.0001) %MON dynstat_salt_del2            =   7.4874030686889E-07
(PID.TID 0000.0001) %MON advcfl_uvel_max              =   1.7685159576724E-03
(PID.TID 0000.0001) %MON advcfl_vvel_max              =   1.3476983574887E-03
(PID.TID 0000.0001) %MON advcfl_wvel_max              =   3.8011870911599E-03
(PID.TID 0000.0001) %MON advcfl_W_hf_max              =   3.8011870911599E-03
(PID.TID 0000.0001) %MON pe_b_mean                    =  -6.8237609374494E-01
(PID.TID 0000.0001) %MON ke_max                       =   1.0196369959632E-04
(PID.TID 0000.0001) %MON ke_mean                      =   1.4364898049290E-07
(PID.TID 0000.0001) %MON ke_vol                       =   4.6182986768021E+12
(PID.TID 0000.0001) // =======================================================
(PID.TID 0000.0001) // End MONITOR dynamic field statistics
(PID.TID 0000.0001) // =======================================================
(PID.TID 0000.0001) // =======================================================
(PID.TID 0000.0001) // Begin OBCS MONITOR field statistics
(PID.TID 0000.0001) // =======================================================
(PID.TID 0000.0001) %MON obc_N_vVel_max               =  -2.1813348903478E-07
(PID.TID 0000.0001) %MON obc_N_vVel_min               =  -2.1813348903479E-07
(PID.TID 0000.0001) %MON obc_N_vVel_mean              =  -2.1813348903478E-07
(PID.TID 0000.0001) %MON obc_N_vVel_sd                =   4.0115785504597E-14
(PID.TID 0000.0001) %MON obc_N_vVel_Int               =  -1.4396810276295E+01
(PID.TID 0000.0001) // =======================================================
(PID.TID 0000.0001) // End OBCS MONITOR field statistics
(PID.TID 0000.0001) // =======================================================
 cg2d: Sum(rhs),rhsMax =   3.01018158462278E+00  4.53046397712716E+02
(PID.TID 0000.0001)      cg2d_init_res =   2.32225229561105E-06
(PID.TID 0000.0001)      cg2d_iters(min,last) =      -1      73
(PID.TID 0000.0001)      cg2d_last_res =   9.88521896770075E-12
(PID.TID 0000.0001) // =======================================================
(PID.TID 0000.0001) // Begin MONITOR dynamic field statistics
(PID.TID 0000.0001) // =======================================================
(PID.TID 0000.0001) %MON time_tsnumber                =                   937
(PID.TID 0000.0001) %MON time_secondsf                =   9.3700000000000E+04
(PID.TID 0000.0001) %MON dynstat_eta_max              =   5.7980613006576E+00
(PID.TID 0000.0001) %MON dynstat_eta_min              =  -1.4173636917850E+01
(PID.TID 0000.0001) %MON dynstat_eta_mean             =  -2.5254665247676E+00
(PID.TID 0000.0001) %MON dynstat_eta_sd               =   4.9414809662751E+00
(PID.TID 0000.0001) %MON dynstat_eta_del2             =   1.9058369471856E-01
(PID.TID 0000.0001) %MON dynstat_uvel_max             =   4.1518424220008E-03
(PID.TID 0000.0001) %MON dynstat_uvel_min             =  -1.7728539892111E-02
(PID.TID 0000.0001) %MON dynstat_uvel_mean            =  -5.4128603684453E-10
(PID.TID 0000.0001) %MON dynstat_uvel_sd              =   4.7543313341423E-04
(PID.TID 0000.0001) %MON dynstat_uvel_del2            =   7.5315542467220E-07
(PID.TID 0000.0001) %MON dynstat_vvel_max             =   1.3509082484001E-02
(PID.TID 0000.0001) %MON dynstat_vvel_min             =  -4.8991240638987E-03
(PID.TID 0000.0001) %MON dynstat_vvel_mean            =  -2.0982477524400E-07
(PID.TID 0000.0001) %MON dynstat_vvel_sd              =   2.5888766866711E-04
(PID.TID 0000.0001) %MON dynstat_vvel_del2            =   6.7668806407048E-07
(PID.TID 0000.0001) %MON dynstat_wvel_max             =   7.2272897229395E-04
(PID.TID 0000.0001) %MON dynstat_wvel_min             =  -7.6270415716463E-04
(PID.TID 0000.0001) %MON dynstat_wvel_mean            =   2.5220309576288E-10
(PID.TID 0000.0001) %MON dynstat_wvel_sd              =   1.3258639464832E-05
(PID.TID 0000.0001) %MON dynstat_wvel_del2            =   5.4232703467144E-08
(PID.TID 0000.0001) %MON dynstat_theta_max            =   1.2000000000000E+00
(PID.TID 0000.0001) %MON dynstat_theta_min            =  -1.0000000000000E+00
(PID.TID 0000.0001) %MON dynstat_theta_mean           =   5.6525668125553E-01
(PID.TID 0000.0001) %MON dynstat_theta_sd             =   8.4899364257431E-01
(PID.TID 0000.0001) %MON dynstat_theta_del2           =   1.9022630584878E-06
(PID.TID 0000.0001) %MON dynstat_salt_max             =   3.4700000000000E+01
(PID.TID 0000.0001) %MON dynstat_salt_min             =   3.4000000000000E+01
(PID.TID 0000.0001) %MON dynstat_salt_mean            =   3.4498016551055E+01
(PID.TID 0000.0001) %MON dynstat_salt_sd              =   2.7013297689141E-01
(PID.TID 0000.0001) %MON dynstat_salt_del2            =   7.5039327356384E-07
(PID.TID 0000.0001) %MON advcfl_uvel_max              =   1.7728539892111E-03
(PID.TID 0000.0001) %MON advcfl_vvel_max              =   1.3509082484001E-03
(PID.TID 0000.0001) %MON advcfl_wvel_max              =   3.8135207858232E-03
(PID.TID 0000.0001) %MON advcfl_W_hf_max              =   3.8135207858232E-03
(PID.TID 0000.0001) %MON pe_b_mean                    =  -6.8237483633719E-01
(PID.TID 0000.0001) %MON ke_max                       =   1.0262345025968E-04
(PID.TID 0000.0001) %MON ke_mean                      =   1.4440416776399E-07
(PID.TID 0000.0001) %MON ke_vol                       =   4.6182987027693E+12
(PID.TID 0000.0001) // =======================================================
(PID.TID 0000.0001) // End MONITOR dynamic field statistics
(PID.TID 0000.0001) // =======================================================
(PID.TID 0000.0001) // =======================================================
(PID.TID 0000.0001) // Begin OBCS MONITOR field statistics
(PID.TID 0000.0001) // =======================================================
(PID.TID 0000.0001) %MON obc_N_vVel_max               =  -2.2684721323128E-07
(PID.TID 0000.0001) %MON obc_N_vVel_min               =  -2.2684721323129E-07
(PID.TID 0000.0001) %MON obc_N_vVel_mean              =  -2.2684721323128E-07
(PID.TID 0000.0001) %MON obc_N_vVel_sd                =  -6.3108872417681E-30
(PID.TID 0000.0001) %MON obc_N_vVel_Int               =  -1.4971916073265E+01
(PID.TID 0000.0001) // =======================================================
(PID.TID 0000.0001) // End OBCS MONITOR field statistics
(PID.TID 0000.0001) // =======================================================
 cg2d: Sum(rhs),rhsMax =   3.01017639793048E+00  4.53046387819101E+02
(PID.TID 0000.0001)      cg2d_init_res =   2.32632146893743E-06
(PID.TID 0000.0001)      cg2d_iters(min,last) =      -1      73
(PID.TID 0000.0001)      cg2d_last_res =   9.91632963004936E-12
(PID.TID 0000.0001) // =======================================================
(PID.TID 0000.0001) // Begin MONITOR dynamic field statistics
(PID.TID 0000.0001) // =======================================================
(PID.TID 0000.0001) %MON time_tsnumber                =                   938
(PID.TID 0000.0001) %MON time_secondsf                =   9.3800000000000E+04
(PID.TID 0000.0001) %MON dynstat_eta_max              =   5.7980644033740E+00
(PID.TID 0000.0001) %MON dynstat_eta_min              =  -1.4173628167583E+01
(PID.TID 0000.0001) %MON dynstat_eta_mean             =  -2.5254621181124E+00
(PID.TID 0000.0001) %MON dynstat_eta_sd               =   4.9414796520663E+00
(PID.TID 0000.0001) %MON dynstat_eta_del2             =   1.9058370546887E-01
(PID.TID 0000.0001) %MON dynstat_uvel_max             =   4.1566232882655E-03
(PID.TID 0000.0001) %MON dynstat_uvel_min             =  -1.7771986533685E-02
(PID.TID 0000.0001) %MON dynstat_uvel_mean            =  -5.6416915348386E-10
(PID.TID 0000.0001) %MON dynstat_uvel_sd              =   4.7673299676792E-04
(PID.TID 0000.0001) %MON dynstat_uvel_del2            =   7.5495830687635E-07
(PID.TID 0000.0001) %MON dynstat_vvel_max             =   1.3541224898038E-02
(PID.TID 0000.0001) %MON dynstat_vvel_min             =  -4.9106996892956E-03
(PID.TID 0000.0001) %MON dynstat_vvel_mean            =  -2.1750170334324E-07
(PID.TID 0000.0001) %MON dynstat_vvel_sd              =   2.5947008628984E-04
(PID.TID 0000.0001) %MON dynstat_vvel_del2            =   6.7813528447080E-07
(PID.TID 0000.0001) %MON dynstat_wvel_max             =   7.2469254255845E-04
(PID.TID 0000.0001) %MON dynstat_wvel_min             =  -7.6517783216244E-04
(PID.TID 0000.0001) %MON dynstat_wvel_mean            =   2.6047535254829E-10
(PID.TID 0000.0001) %MON dynstat_wvel_sd              =   1.3280061108788E-05
(PID.TID 0000.0001) %MON dynstat_wvel_del2            =   5.4276745655710E-08
(PID.TID 0000.0001) %MON dynstat_theta_max            =   1.2000000000000E+00
(PID.TID 0000.0001) %MON dynstat_theta_min            =  -1.0000000000000E+00
(PID.TID 0000.0001) %MON dynstat_theta_mean           =   5.6525621912317E-01
(PID.TID 0000.0001) %MON dynstat_theta_sd             =   8.4899345235121E-01
(PID.TID 0000.0001) %MON dynstat_theta_del2           =   1.9064334925209E-06
(PID.TID 0000.0001) %MON dynstat_salt_max             =   3.4700000000000E+01
(PID.TID 0000.0001) %MON dynstat_salt_min             =   3.4000000000000E+01
(PID.TID 0000.0001) %MON dynstat_salt_mean            =   3.4498016366837E+01
(PID.TID 0000.0001) %MON dynstat_salt_sd              =   2.7013290626358E-01
(PID.TID 0000.0001) %MON dynstat_salt_del2            =   7.5205032522575E-07
(PID.TID 0000.0001) %MON advcfl_uvel_max              =   1.7771986533685E-03
(PID.TID 0000.0001) %MON advcfl_vvel_max              =   1.3541224898038E-03
(PID.TID 0000.0001) %MON advcfl_wvel_max              =   3.8258891608122E-03
(PID.TID 0000.0001) %MON advcfl_W_hf_max              =   3.8258891608122E-03
(PID.TID 0000.0001) %MON pe_b_mean                    =  -6.8237357481285E-01
(PID.TID 0000.0001) %MON ke_max                       =   1.0328694496594E-04
(PID.TID 0000.0001) %MON ke_mean                      =   1.4516232483606E-07
(PID.TID 0000.0001) %MON ke_vol                       =   4.6182987288429E+12
(PID.TID 0000.0001) // =======================================================
(PID.TID 0000.0001) // End MONITOR dynamic field statistics
(PID.TID 0000.0001) // =======================================================
(PID.TID 0000.0001) // =======================================================
(PID.TID 0000.0001) // Begin OBCS MONITOR field statistics
(PID.TID 0000.0001) // =======================================================
(PID.TID 0000.0001) %MON obc_N_vVel_max               =  -2.3486368731356E-07
(PID.TID 0000.0001) %MON obc_N_vVel_min               =  -2.3486368731356E-07
(PID.TID 0000.0001) %MON obc_N_vVel_mean              =  -2.3486368731356E-07
(PID.TID 0000.0001) %MON obc_N_vVel_sd                =   2.5741856195419E-14
(PID.TID 0000.0001) %MON obc_N_vVel_Int               =  -1.5501003362695E+01
(PID.TID 0000.0001) // =======================================================
(PID.TID 0000.0001) // End OBCS MONITOR field statistics
(PID.TID 0000.0001) // =======================================================
 cg2d: Sum(rhs),rhsMax =   3.01017119002134E+00  4.53046378187797E+02
(PID.TID 0000.0001)      cg2d_init_res =   2.33046322734643E-06
(PID.TID 0000.0001)      cg2d_iters(min,last) =      -1      73
(PID.TID 0000.0001)      cg2d_last_res =   9.94788574087544E-12
(PID.TID 0000.0001) // =======================================================
(PID.TID 0000.0001) // Begin MONITOR dynamic field statistics
(PID.TID 0000.0001) // =======================================================
(PID.TID 0000.0001) %MON time_tsnumber                =                   939
(PID.TID 0000.0001) %MON time_secondsf                =   9.3900000000000E+04
(PID.TID 0000.0001) %MON dynstat_eta_max              =   5.7980675204192E+00
(PID.TID 0000.0001) %MON dynstat_eta_min              =  -1.4173619379064E+01
(PID.TID 0000.0001) %MON dynstat_eta_mean             =  -2.5254576951193E+00
(PID.TID 0000.0001) %MON dynstat_eta_sd               =   4.9414783338432E+00
(PID.TID 0000.0001) %MON dynstat_eta_del2             =   1.9058371625399E-01
(PID.TID 0000.0001) %MON dynstat_uvel_max             =   4.1613984103606E-03
(PID.TID 0000.0001) %MON dynstat_uvel_min             =  -1.7815499417646E-02
(PID.TID 0000.0001) %MON dynstat_uvel_mean            =  -5.8936880411606E-10
(PID.TID 0000.0001) %MON dynstat_uvel_sd              =   4.7803600306172E-04
(PID.TID 0000.0001) %MON dynstat_uvel_del2            =   7.5676606918774E-07
(PID.TID 0000.0001) %MON dynstat_vvel_max             =   1.3573410759748E-02
(PID.TID 0000.0001) %MON dynstat_vvel_min             =  -4.9222965713192E-03
(PID.TID 0000.0001) %MON dynstat_vvel_mean            =  -2.2439179995903E-07
(PID.TID 0000.0001) %MON dynstat_vvel_sd              =   2.6005063921530E-04
(PID.TID 0000.0001) %MON dynstat_vvel_del2            =   6.7959583059137E-07
(PID.TID 0000.0001) %MON dynstat_wvel_max             =   7.2665983413461E-04
(PID.TID 0000.0001) %MON dynstat_wvel_min             =  -7.6765845762730E-04
(PID.TID 0000.0001) %MON dynstat_wvel_mean            =   2.6881655555835E-10
(PID.TID 0000.0001) %MON dynstat_wvel_sd              =   1.3300318825760E-05
(PID.TID 0000.0001) %MON dynstat_wvel_del2            =   5.4348026636819E-08
(PID.TID 0000.0001) %MON dynstat_theta_max            =   1.2000000000000E+00
(PID.TID 0000.0001) %MON dynstat_theta_min            =  -1.0000000000000E+00
(PID.TID 0000.0001) %MON dynstat_theta_mean           =   5.6525575608350E-01
(PID.TID 0000.0001) %MON dynstat_theta_sd             =   8.4899326167416E-01
(PID.TID 0000.0001) %MON dynstat_theta_del2           =   1.9106126661281E-06
(PID.TID 0000.0001) %MON dynstat_salt_max             =   3.4700000000000E+01
(PID.TID 0000.0001) %MON dynstat_salt_min             =   3.4000000000000E+01
(PID.TID 0000.0001) %MON dynstat_salt_mean            =   3.4498016182254E+01
(PID.TID 0000.0001) %MON dynstat_salt_sd              =   2.7013283545887E-01
(PID.TID 0000.0001) %MON dynstat_salt_del2            =   7.5371109451361E-07
(PID.TID 0000.0001) %MON advcfl_uvel_max              =   1.7815499417646E-03
(PID.TID 0000.0001) %MON advcfl_vvel_max              =   1.3573410759748E-03
(PID.TID 0000.0001) %MON advcfl_wvel_max              =   3.8382922881365E-03
(PID.TID 0000.0001) %MON advcfl_W_hf_max              =   3.8382922881365E-03
(PID.TID 0000.0001) %MON pe_b_mean                    =  -6.8237230934179E-01
(PID.TID 0000.0001) %MON ke_max                       =   1.0395420062252E-04
(PID.TID 0000.0001) %MON ke_mean                      =   1.4592346816361E-07
(PID.TID 0000.0001) %MON ke_vol                       =   4.6182987550184E+12
(PID.TID 0000.0001) // =======================================================
(PID.TID 0000.0001) // End MONITOR dynamic field statistics
(PID.TID 0000.0001) // =======================================================
(PID.TID 0000.0001) // =======================================================
(PID.TID 0000.0001) // Begin OBCS MONITOR field statistics
(PID.TID 0000.0001) // =======================================================
(PID.TID 0000.0001) %MON obc_N_vVel_max               =  -2.4212512410253E-07
(PID.TID 0000.0001) %MON obc_N_vVel_min               =  -2.4212512410254E-07
(PID.TID 0000.0001) %MON obc_N_vVel_mean              =  -2.4212512410253E-07
(PID.TID 0000.0001) %MON obc_N_vVel_sd                =   3.5704330589400E-14
(PID.TID 0000.0001) %MON obc_N_vVel_Int               =  -1.5980258190767E+01
(PID.TID 0000.0001) // =======================================================
(PID.TID 0000.0001) // End OBCS MONITOR field statistics
(PID.TID 0000.0001) // =======================================================
 cg2d: Sum(rhs),rhsMax =   3.01016596178550E+00  4.53046368842941E+02
(PID.TID 0000.0001)      cg2d_init_res =   2.33473361016112E-06
(PID.TID 0000.0001)      cg2d_iters(min,last) =      -1      73
(PID.TID 0000.0001)      cg2d_last_res =   9.97986127667487E-12
(PID.TID 0000.0001) // =======================================================
(PID.TID 0000.0001) // Begin MONITOR dynamic field statistics
(PID.TID 0000.0001) // =======================================================
(PID.TID 0000.0001) %MON time_tsnumber                =                   940
(PID.TID 0000.0001) %MON time_secondsf                =   9.4000000000000E+04
(PID.TID 0000.0001) %MON dynstat_eta_max              =   5.7980706502777E+00
(PID.TID 0000.0001) %MON dynstat_eta_min              =  -1.4173610553892E+01
(PID.TID 0000.0001) %MON dynstat_eta_mean             =  -2.5254532566695E+00
(PID.TID 0000.0001) %MON dynstat_eta_sd               =   4.9414770119421E+00
(PID.TID 0000.0001) %MON dynstat_eta_del2             =   1.9058372707464E-01
(PID.TID 0000.0001) %MON dynstat_uvel_max             =   4.1661677552582E-03
(PID.TID 0000.0001) %MON dynstat_uvel_min             =  -1.7859078459166E-02
(PID.TID 0000.0001) %MON dynstat_uvel_mean            =  -6.1677707717499E-10
(PID.TID 0000.0001) %MON dynstat_uvel_sd              =   4.7934215252571E-04
(PID.TID 0000.0001) %MON dynstat_uvel_del2            =   7.5857872282137E-07
(PID.TID 0000.0001) %MON dynstat_vvel_max             =   1.3605640011187E-02
(PID.TID 0000.0001) %MON dynstat_vvel_min             =  -4.9339147406098E-03
(PID.TID 0000.0001) %MON dynstat_vvel_mean            =  -2.3044072721108E-07
(PID.TID 0000.0001) %MON dynstat_vvel_sd              =   2.6062937529851E-04
(PID.TID 0000.0001) %MON dynstat_vvel_del2            =   6.8107076023776E-07
(PID.TID 0000.0001) %MON dynstat_wvel_max             =   7.2863084893048E-04
(PID.TID 0000.0001) %MON dynstat_wvel_min             =  -7.7014604796175E-04
(PID.TID 0000.0001) %MON dynstat_wvel_mean            =   2.7718759248362E-10
(PID.TID 0000.0001) %MON dynstat_wvel_sd              =   1.3319810979738E-05
(PID.TID 0000.0001) %MON dynstat_wvel_del2            =   5.4451155679583E-08
(PID.TID 0000.0001) %MON dynstat_theta_max            =   1.2000000000000E+00
(PID.TID 0000.0001) %MON dynstat_theta_min            =  -1.0000000000000E+00
(PID.TID 0000.0001) %MON dynstat_theta_mean           =   5.6525529213245E-01
(PID.TID 0000.0001) %MON dynstat_theta_sd             =   8.4899307054352E-01
(PID.TID 0000.0001) %MON dynstat_theta_del2           =   1.9147998674054E-06
(PID.TID 0000.0001) %MON dynstat_salt_max             =   3.4700000000000E+01
(PID.TID 0000.0001) %MON dynstat_salt_min             =   3.4000000000000E+01
(PID.TID 0000.0001) %MON dynstat_salt_mean            =   3.4498015997306E+01
(PID.TID 0000.0001) %MON dynstat_salt_sd              =   2.7013276447743E-01
(PID.TID 0000.0001) %MON dynstat_salt_del2            =   7.5537538134100E-07
(PID.TID 0000.0001) %MON advcfl_uvel_max              =   1.7859078459166E-03
(PID.TID 0000.0001) %MON advcfl_vvel_max              =   1.3605640011187E-03
(PID.TID 0000.0001) %MON advcfl_wvel_max              =   3.8507302398088E-03
(PID.TID 0000.0001) %MON advcfl_W_hf_max              =   3.8507302398088E-03
(PID.TID 0000.0001) %MON pe_b_mean                    =  -6.8237104010465E-01
(PID.TID 0000.0001) %MON ke_max                       =   1.0462523418571E-04
(PID.TID 0000.0001) %MON ke_mean                      =   1.4668761910552E-07
(PID.TID 0000.0001) %MON ke_vol                       =   4.6182987812910E+12
(PID.TID 0000.0001) // =======================================================
(PID.TID 0000.0001) // End MONITOR dynamic field statistics
(PID.TID 0000.0001) // =======================================================
(PID.TID 0000.0001) // =======================================================
(PID.TID 0000.0001) // Begin OBCS MONITOR field statistics
(PID.TID 0000.0001) // =======================================================
(PID.TID 0000.0001) %MON obc_N_vVel_max               =  -2.4857645291601E-07
(PID.TID 0000.0001) %MON obc_N_vVel_min               =  -2.4857645291602E-07
(PID.TID 0000.0001) %MON obc_N_vVel_mean              =  -2.4857645291601E-07
(PID.TID 0000.0001) %MON obc_N_vVel_sd                =   5.3172149517507E-14
(PID.TID 0000.0001) %MON obc_N_vVel_Int               =  -1.6406045892457E+01
(PID.TID 0000.0001) // =======================================================
(PID.TID 0000.0001) // End OBCS MONITOR field statistics
(PID.TID 0000.0001) // =======================================================
 cg2d: Sum(rhs),rhsMax =   3.01016071419357E+00  4.53046359807517E+02
(PID.TID 0000.0001)      cg2d_init_res =   2.33917153744511E-06
(PID.TID 0000.0001)      cg2d_iters(min,last) =      -1      74
(PID.TID 0000.0001)      cg2d_last_res =   6.88948903989839E-12
(PID.TID 0000.0001) // =======================================================
(PID.TID 0000.0001) // Begin MONITOR dynamic field statistics
(PID.TID 0000.0001) // =======================================================
(PID.TID 0000.0001) %MON time_tsnumber                =                   941
(PID.TID 0000.0001) %MON time_secondsf                =   9.4100000000000E+04
(PID.TID 0000.0001) %MON dynstat_eta_max              =   5.7980737913409E+00
(PID.TID 0000.0001) %MON dynstat_eta_min              =  -1.4173601694671E+01
(PID.TID 0000.0001) %MON dynstat_eta_mean             =  -2.5254488037055E+00
(PID.TID 0000.0001) %MON dynstat_eta_sd               =   4.9414756867274E+00
(PID.TID 0000.0001) %MON dynstat_eta_del2             =   1.9058373793248E-01
(PID.TID 0000.0001) %MON dynstat_uvel_max             =   4.1709312873852E-03
(PID.TID 0000.0001) %MON dynstat_uvel_min             =  -1.7902723570208E-02
(PID.TID 0000.0001) %MON dynstat_uvel_mean            =  -6.4628275141819E-10
(PID.TID 0000.0001) %MON dynstat_uvel_sd              =   4.8065144482611E-04
(PID.TID 0000.0001) %MON dynstat_uvel_del2            =   7.6039627976909E-07
(PID.TID 0000.0001) %MON dynstat_vvel_max             =   1.3637912595579E-02
(PID.TID 0000.0001) %MON dynstat_vvel_min             =  -4.9455542168566E-03
(PID.TID 0000.0001) %MON dynstat_vvel_mean            =  -2.3559785482700E-07
(PID.TID 0000.0001) %MON dynstat_vvel_sd              =   2.6120635670629E-04
(PID.TID 0000.0001) %MON dynstat_vvel_del2            =   6.8256035097575E-07
(PID.TID 0000.0001) %MON dynstat_wvel_max             =   7.3060558448283E-04
(PID.TID 0000.0001) %MON dynstat_wvel_min             =  -7.7264061748883E-04
(PID.TID 0000.0001) %MON dynstat_wvel_mean            =   2.8554169203602E-10
(PID.TID 0000.0001) %MON dynstat_wvel_sd              =   1.3338705893689E-05
(PID.TID 0000.0001) %MON dynstat_wvel_del2            =   5.4587327495911E-08
(PID.TID 0000.0001) %MON dynstat_theta_max            =   1.2000000000000E+00
(PID.TID 0000.0001) %MON dynstat_theta_min            =  -1.0000000000000E+00
(PID.TID 0000.0001) %MON dynstat_theta_mean           =   5.6525482726612E-01
(PID.TID 0000.0001) %MON dynstat_theta_sd             =   8.4899287896065E-01
(PID.TID 0000.0001) %MON dynstat_theta_del2           =   1.9189950823505E-06
(PID.TID 0000.0001) %MON dynstat_salt_max             =   3.4700000000000E+01
(PID.TID 0000.0001) %MON dynstat_salt_min             =   3.4000000000000E+01
(PID.TID 0000.0001) %MON dynstat_salt_mean            =   3.4498015811992E+01
(PID.TID 0000.0001) %MON dynstat_salt_sd              =   2.7013269331981E-01
(PID.TID 0000.0001) %MON dynstat_salt_del2            =   7.5704322798941E-07
(PID.TID 0000.0001) %MON advcfl_uvel_max              =   1.7902723570208E-03
(PID.TID 0000.0001) %MON advcfl_vvel_max              =   1.3637912595579E-03
(PID.TID 0000.0001) %MON advcfl_wvel_max              =   3.8632030874441E-03
(PID.TID 0000.0001) %MON advcfl_W_hf_max              =   3.8632030874441E-03
(PID.TID 0000.0001) %MON pe_b_mean                    =  -6.8236976729335E-01
(PID.TID 0000.0001) %MON ke_max                       =   1.0530006269252E-04
(PID.TID 0000.0001) %MON ke_mean                      =   1.4745480264578E-07
(PID.TID 0000.0001) %MON ke_vol                       =   4.6182988076554E+12
(PID.TID 0000.0001) // =======================================================
(PID.TID 0000.0001) // End MONITOR dynamic field statistics
(PID.TID 0000.0001) // =======================================================
(PID.TID 0000.0001) // =======================================================
(PID.TID 0000.0001) // Begin OBCS MONITOR field statistics
(PID.TID 0000.0001) // =======================================================
(PID.TID 0000.0001) %MON obc_N_vVel_max               =  -2.5416574570433E-07
(PID.TID 0000.0001) %MON obc_N_vVel_min               =  -2.5416574570434E-07
(PID.TID 0000.0001) %MON obc_N_vVel_mean              =  -2.5416574570434E-07
(PID.TID 0000.0001) %MON obc_N_vVel_sd                =  -2.9030081312133E-27
(PID.TID 0000.0001) %MON obc_N_vVel_Int               =  -1.6774939216486E+01
(PID.TID 0000.0001) // =======================================================
(PID.TID 0000.0001) // End OBCS MONITOR field statistics
(PID.TID 0000.0001) // =======================================================
 cg2d: Sum(rhs),rhsMax =   3.01015544828135E+00  4.53046351103733E+02
(PID.TID 0000.0001)      cg2d_init_res =   2.34375761792780E-06
(PID.TID 0000.0001)      cg2d_iters(min,last) =      -1      74
(PID.TID 0000.0001)      cg2d_last_res =   6.90712266938748E-12
(PID.TID 0000.0001) // =======================================================
(PID.TID 0000.0001) // Begin MONITOR dynamic field statistics
(PID.TID 0000.0001) // =======================================================
(PID.TID 0000.0001) %MON time_tsnumber                =                   942
(PID.TID 0000.0001) %MON time_secondsf                =   9.4200000000000E+04
(PID.TID 0000.0001) %MON dynstat_eta_max              =   5.7980769419093E+00
(PID.TID 0000.0001) %MON dynstat_eta_min              =  -1.4173592801322E+01
(PID.TID 0000.0001) %MON dynstat_eta_mean             =  -2.5254443372202E+00
(PID.TID 0000.0001) %MON dynstat_eta_sd               =   4.9414743585361E+00
(PID.TID 0000.0001) %MON dynstat_eta_del2             =   1.9058374882649E-01
(PID.TID 0000.0001) %MON dynstat_uvel_max             =   4.1756889820928E-03
(PID.TID 0000.0001) %MON dynstat_uvel_min             =  -1.7946434670548E-02
(PID.TID 0000.0001) %MON dynstat_uvel_mean            =  -6.7770587600484E-10
(PID.TID 0000.0001) %MON dynstat_uvel_sd              =   4.8196387910616E-04
(PID.TID 0000.0001) %MON dynstat_uvel_del2            =   7.6221875289101E-07
(PID.TID 0000.0001) %MON dynstat_vvel_max             =   1.3670228447409E-02
(PID.TID 0000.0001) %MON dynstat_vvel_min             =  -4.9572150643122E-03
(PID.TID 0000.0001) %MON dynstat_vvel_mean            =  -2.3981596759122E-07
(PID.TID 0000.0001) %MON dynstat_vvel_sd              =   2.6178165817748E-04
(PID.TID 0000.0001) %MON dynstat_vvel_del2            =   6.8406409210901E-07
(PID.TID 0000.0001) %MON dynstat_wvel_max             =   7.3258405563591E-04
(PID.TID 0000.0001) %MON dynstat_wvel_min             =  -7.7514218043327E-04
(PID.TID 0000.0001) %MON dynstat_wvel_mean            =   2.9385821026382E-10
(PID.TID 0000.0001) %MON dynstat_wvel_sd              =   1.3356939557124E-05
(PID.TID 0000.0001) %MON dynstat_wvel_del2            =   5.4754276242618E-08
(PID.TID 0000.0001) %MON dynstat_theta_max            =   1.2000000000000E+00
(PID.TID 0000.0001) %MON dynstat_theta_min            =  -1.0000000000000E+00
(PID.TID 0000.0001) %MON dynstat_theta_mean           =   5.6525436148026E-01
(PID.TID 0000.0001) %MON dynstat_theta_sd             =   8.4899268692624E-01
(PID.TID 0000.0001) %MON dynstat_theta_del2           =   1.9231989908295E-06
(PID.TID 0000.0001) %MON dynstat_salt_max             =   3.4700000000000E+01
(PID.TID 0000.0001) %MON dynstat_salt_min             =   3.4000000000000E+01
(PID.TID 0000.0001) %MON dynstat_salt_mean            =   3.4498015626308E+01
(PID.TID 0000.0001) %MON dynstat_salt_sd              =   2.7013262198582E-01
(PID.TID 0000.0001) %MON dynstat_salt_del2            =   7.5871472202087E-07
(PID.TID 0000.0001) %MON advcfl_uvel_max              =   1.7946434670548E-03
(PID.TID 0000.0001) %MON advcfl_vvel_max              =   1.3670228447409E-03
(PID.TID 0000.0001) %MON advcfl_wvel_max              =   3.8757109021664E-03
(PID.TID 0000.0001) %MON advcfl_W_hf_max              =   3.8757109021664E-03
(PID.TID 0000.0001) %MON pe_b_mean                    =  -6.8236849110942E-01
(PID.TID 0000.0001) %MON ke_max                       =   1.0597870310787E-04
(PID.TID 0000.0001) %MON ke_mean                      =   1.4822504699444E-07
(PID.TID 0000.0001) %MON ke_vol                       =   4.6182988341060E+12
(PID.TID 0000.0001) // =======================================================
(PID.TID 0000.0001) // End MONITOR dynamic field statistics
(PID.TID 0000.0001) // =======================================================
(PID.TID 0000.0001) // =======================================================
(PID.TID 0000.0001) // Begin OBCS MONITOR field statistics
(PID.TID 0000.0001) // =======================================================
(PID.TID 0000.0001) %MON obc_N_vVel_max               =  -2.5884573822555E-07
(PID.TID 0000.0001) %MON obc_N_vVel_min               =  -2.5884573822555E-07
(PID.TID 0000.0001) %MON obc_N_vVel_mean              =  -2.5884573822555E-07
(PID.TID 0000.0001) %MON obc_N_vVel_sd                =   1.0048591735576E-14
(PID.TID 0000.0001) %MON obc_N_vVel_Int               =  -1.7083818722886E+01
(PID.TID 0000.0001) // =======================================================
(PID.TID 0000.0001) // End OBCS MONITOR field statistics
(PID.TID 0000.0001) // =======================================================
 cg2d: Sum(rhs),rhsMax =   3.01015016516724E+00  4.53046342750677E+02
(PID.TID 0000.0001)      cg2d_init_res =   2.34849696777686E-06
(PID.TID 0000.0001)      cg2d_iters(min,last) =      -1      74
(PID.TID 0000.0001)      cg2d_last_res =   6.92425842688460E-12
(PID.TID 0000.0001) // =======================================================
(PID.TID 0000.0001) // Begin MONITOR dynamic field statistics
(PID.TID 0000.0001) // =======================================================
(PID.TID 0000.0001) %MON time_tsnumber                =                   943
(PID.TID 0000.0001) %MON time_secondsf                =   9.4300000000000E+04
(PID.TID 0000.0001) %MON dynstat_eta_max              =   5.7980801001730E+00
(PID.TID 0000.0001) %MON dynstat_eta_min              =  -1.4173583876708E+01
(PID.TID 0000.0001) %MON dynstat_eta_mean             =  -2.5254398582581E+00
(PID.TID 0000.0001) %MON dynstat_eta_sd               =   4.9414730277557E+00
(PID.TID 0000.0001) %MON dynstat_eta_del2             =   1.9058375975833E-01
(PID.TID 0000.0001) %MON dynstat_uvel_max             =   4.1804407990114E-03
(PID.TID 0000.0001) %MON dynstat_uvel_min             =  -1.7990211664573E-02
(PID.TID 0000.0001) %MON dynstat_uvel_mean            =  -7.1086028574811E-10
(PID.TID 0000.0001) %MON dynstat_uvel_sd              =   4.8327945400473E-04
(PID.TID 0000.0001) %MON dynstat_uvel_del2            =   7.6404615577592E-07
(PID.TID 0000.0001) %MON dynstat_vvel_max             =   1.3702587511770E-02
(PID.TID 0000.0001) %MON dynstat_vvel_min             =  -4.9688972810520E-03
(PID.TID 0000.0001) %MON dynstat_vvel_mean            =  -2.4305253412505E-07
(PID.TID 0000.0001) %MON dynstat_vvel_sd              =   2.6235536872243E-04
(PID.TID 0000.0001) %MON dynstat_vvel_del2            =   6.8558075313415E-07
(PID.TID 0000.0001) %MON dynstat_wvel_max             =   7.3456625134427E-04
(PID.TID 0000.0001) %MON dynstat_wvel_min             =  -7.7765075106464E-04
(PID.TID 0000.0001) %MON dynstat_wvel_mean            =   3.0205158246265E-10
(PID.TID 0000.0001) %MON dynstat_wvel_sd              =   1.3374243536046E-05
(PID.TID 0000.0001) %MON dynstat_wvel_del2            =   5.4946607778228E-08
(PID.TID 0000.0001) %MON dynstat_theta_max            =   1.2000000000000E+00
(PID.TID 0000.0001) %MON dynstat_theta_min            =  -1.0000000000000E+00
(PID.TID 0000.0001) %MON dynstat_theta_mean           =   5.6525389477052E-01
(PID.TID 0000.0001) %MON dynstat_theta_sd             =   8.4899249444032E-01
(PID.TID 0000.0001) %MON dynstat_theta_del2           =   1.9274128266350E-06
(PID.TID 0000.0001) %MON dynstat_salt_max             =   3.4700000000000E+01
(PID.TID 0000.0001) %MON dynstat_salt_min             =   3.4000000000000E+01
(PID.TID 0000.0001) %MON dynstat_salt_mean            =   3.4498015440255E+01
(PID.TID 0000.0001) %MON dynstat_salt_sd              =   2.7013255047578E-01
(PID.TID 0000.0001) %MON dynstat_salt_del2            =   7.6039015797107E-07
(PID.TID 0000.0001) %MON advcfl_uvel_max              =   1.7990211664573E-03
(PID.TID 0000.0001) %MON advcfl_vvel_max              =   1.3702587511770E-03
(PID.TID 0000.0001) %MON advcfl_wvel_max              =   3.8882537553232E-03
(PID.TID 0000.0001) %MON advcfl_W_hf_max              =   3.8882537553232E-03
(PID.TID 0000.0001) %MON pe_b_mean                    =  -6.8236721176284E-01
(PID.TID 0000.0001) %MON ke_max                       =   1.0666117261280E-04
(PID.TID 0000.0001) %MON ke_mean                      =   1.4899838407461E-07
(PID.TID 0000.0001) %MON ke_vol                       =   4.6182988606369E+12
(PID.TID 0000.0001) // =======================================================
(PID.TID 0000.0001) // End MONITOR dynamic field statistics
(PID.TID 0000.0001) // =======================================================
(PID.TID 0000.0001) // =======================================================
(PID.TID 0000.0001) // Begin OBCS MONITOR field statistics
(PID.TID 0000.0001) // =======================================================
(PID.TID 0000.0001) %MON obc_N_vVel_max               =  -2.6256960081808E-07
(PID.TID 0000.0001) %MON obc_N_vVel_min               =  -2.6256960081809E-07
(PID.TID 0000.0001) %MON obc_N_vVel_mean              =  -2.6256960081809E-07
(PID.TID 0000.0001) %MON obc_N_vVel_sd                =  -5.3768759299864E-27
(PID.TID 0000.0001) %MON obc_N_vVel_Int               =  -1.7329593653994E+01
(PID.TID 0000.0001) // =======================================================
(PID.TID 0000.0001) // End OBCS MONITOR field statistics
(PID.TID 0000.0001) // =======================================================
 cg2d: Sum(rhs),rhsMax =   3.01014486601951E+00  4.53046334767509E+02
(PID.TID 0000.0001)      cg2d_init_res =   2.35331054788294E-06
(PID.TID 0000.0001)      cg2d_iters(min,last) =      -1      74
(PID.TID 0000.0001)      cg2d_last_res =   6.94128387996728E-12
(PID.TID 0000.0001) // =======================================================
(PID.TID 0000.0001) // Begin MONITOR dynamic field statistics
(PID.TID 0000.0001) // =======================================================
(PID.TID 0000.0001) %MON time_tsnumber                =                   944
(PID.TID 0000.0001) %MON time_secondsf                =   9.4400000000000E+04
(PID.TID 0000.0001) %MON dynstat_eta_max              =   5.7980832642769E+00
(PID.TID 0000.0001) %MON dynstat_eta_min              =  -1.4173574922735E+01
(PID.TID 0000.0001) %MON dynstat_eta_mean             =  -2.5254353679062E+00
(PID.TID 0000.0001) %MON dynstat_eta_sd               =   4.9414716947731E+00
(PID.TID 0000.0001) %MON dynstat_eta_del2             =   1.9058377072883E-01
(PID.TID 0000.0001) %MON dynstat_uvel_max             =   4.1851867078027E-03
(PID.TID 0000.0001) %MON dynstat_uvel_min             =  -1.8034054467040E-02
(PID.TID 0000.0001) %MON dynstat_uvel_mean            =  -7.4555776794379E-10
(PID.TID 0000.0001) %MON dynstat_uvel_sd              =   4.8459816771241E-04
(PID.TID 0000.0001) %MON dynstat_uvel_del2            =   7.6587850277096E-07
(PID.TID 0000.0001) %MON dynstat_vvel_max             =   1.3734989725295E-02
(PID.TID 0000.0001) %MON dynstat_vvel_min             =  -4.9806009090920E-03
(PID.TID 0000.0001) %MON dynstat_vvel_mean            =  -2.4527052875453E-07
(PID.TID 0000.0001) %MON dynstat_vvel_sd              =   2.6292759609423E-04
(PID.TID 0000.0001) %MON dynstat_vvel_del2            =   6.8710851778422E-07
(PID.TID 0000.0001) %MON dynstat_wvel_max             =   7.3655217751682E-04
(PID.TID 0000.0001) %MON dynstat_wvel_min             =  -7.8016634336966E-04
(PID.TID 0000.0001) %MON dynstat_wvel_mean            =   3.1010801595868E-10
(PID.TID 0000.0001) %MON dynstat_wvel_sd              =   1.3390200844263E-05
(PID.TID 0000.0001) %MON dynstat_wvel_del2            =   5.5156470510605E-08
(PID.TID 0000.0001) %MON dynstat_theta_max            =   1.2000000000000E+00
(PID.TID 0000.0001) %MON dynstat_theta_min            =  -1.0000000000000E+00
(PID.TID 0000.0001) %MON dynstat_theta_mean           =   5.6525342713284E-01
(PID.TID 0000.0001) %MON dynstat_theta_sd             =   8.4899230150493E-01
(PID.TID 0000.0001) %MON dynstat_theta_del2           =   1.9316381931828E-06
(PID.TID 0000.0001) %MON dynstat_salt_max             =   3.4700000000000E+01
(PID.TID 0000.0001) %MON dynstat_salt_min             =   3.4000000000000E+01
(PID.TID 0000.0001) %MON dynstat_salt_mean            =   3.4498015253831E+01
(PID.TID 0000.0001) %MON dynstat_salt_sd              =   2.7013247878999E-01
(PID.TID 0000.0001) %MON dynstat_salt_del2            =   7.6206992356328E-07
(PID.TID 0000.0001) %MON advcfl_uvel_max              =   1.8034054467040E-03
(PID.TID 0000.0001) %MON advcfl_vvel_max              =   1.3734989725295E-03
(PID.TID 0000.0001) %MON advcfl_wvel_max              =   3.9008317168483E-03
(PID.TID 0000.0001) %MON advcfl_W_hf_max              =   3.9008317168483E-03
(PID.TID 0000.0001) %MON pe_b_mean                    =  -6.8236592947199E-01
(PID.TID 0000.0001) %MON ke_max                       =   1.0734748835509E-04
(PID.TID 0000.0001) %MON ke_mean                      =   1.4977485076169E-07
(PID.TID 0000.0001) %MON ke_vol                       =   4.6182988872419E+12
(PID.TID 0000.0001) // =======================================================
(PID.TID 0000.0001) // End MONITOR dynamic field statistics
(PID.TID 0000.0001) // =======================================================
(PID.TID 0000.0001) // =======================================================
(PID.TID 0000.0001) // Begin OBCS MONITOR field statistics
(PID.TID 0000.0001) // =======================================================
(PID.TID 0000.0001) %MON obc_N_vVel_max               =  -2.6530133393974E-07
(PID.TID 0000.0001) %MON obc_N_vVel_min               =  -2.6530133393975E-07
(PID.TID 0000.0001) %MON obc_N_vVel_mean              =  -2.6530133393975E-07
(PID.TID 0000.0001) %MON obc_N_vVel_sd                =  -4.3797557457871E-27
(PID.TID 0000.0001) %MON obc_N_vVel_Int               =  -1.7509888040024E+01
(PID.TID 0000.0001) // =======================================================
(PID.TID 0000.0001) // End OBCS MONITOR field statistics
(PID.TID 0000.0001) // =======================================================
 cg2d: Sum(rhs),rhsMax =   3.01013955207433E+00  4.53046327170376E+02
(PID.TID 0000.0001)      cg2d_init_res =   2.35811582047361E-06
(PID.TID 0000.0001)      cg2d_iters(min,last) =      -1      74
(PID.TID 0000.0001)      cg2d_last_res =   6.95823229937391E-12
(PID.TID 0000.0001) // =======================================================
(PID.TID 0000.0001) // Begin MONITOR dynamic field statistics
(PID.TID 0000.0001) // =======================================================
(PID.TID 0000.0001) %MON time_tsnumber                =                   945
(PID.TID 0000.0001) %MON time_secondsf                =   9.4500000000000E+04
(PID.TID 0000.0001) %MON dynstat_eta_max              =   5.7980864322836E+00
(PID.TID 0000.0001) %MON dynstat_eta_min              =  -1.4173565941401E+01
(PID.TID 0000.0001) %MON dynstat_eta_mean             =  -2.5254308672918E+00
(PID.TID 0000.0001) %MON dynstat_eta_sd               =   4.9414703599808E+00
(PID.TID 0000.0001) %MON dynstat_eta_del2             =   1.9058378173877E-01
(PID.TID 0000.0001) %MON dynstat_uvel_max             =   4.1899266760215E-03
(PID.TID 0000.0001) %MON dynstat_uvel_min             =  -1.8077962987435E-02
(PID.TID 0000.0001) %MON dynstat_uvel_mean            =  -7.8158344233604E-10
(PID.TID 0000.0001) %MON dynstat_uvel_sd              =   4.8592001802371E-04
(PID.TID 0000.0001) %MON dynstat_uvel_del2            =   7.6771580883562E-07
(PID.TID 0000.0001) %MON dynstat_vvel_max             =   1.3767435025533E-02
(PID.TID 0000.0001) %MON dynstat_vvel_min             =  -4.9923259807390E-03
(PID.TID 0000.0001) %MON dynstat_vvel_mean            =  -2.4643801099560E-07
(PID.TID 0000.0001) %MON dynstat_vvel_sd              =   2.6349847324292E-04
(PID.TID 0000.0001) %MON dynstat_vvel_del2            =   6.8864516937011E-07
(PID.TID 0000.0001) %MON dynstat_wvel_max             =   7.3854183609866E-04
(PID.TID 0000.0001) %MON dynstat_wvel_min             =  -7.8268897140565E-04
(PID.TID 0000.0001) %MON dynstat_wvel_mean            =   3.1797203270088E-10
(PID.TID 0000.0001) %MON dynstat_wvel_sd              =   1.3404321371710E-05
(PID.TID 0000.0001) %MON dynstat_wvel_del2            =   5.5374465355053E-08
(PID.TID 0000.0001) %MON dynstat_theta_max            =   1.2000000000000E+00
(PID.TID 0000.0001) %MON dynstat_theta_min            =  -1.0000000000000E+00
(PID.TID 0000.0001) %MON dynstat_theta_mean           =   5.6525295856331E-01
(PID.TID 0000.0001) %MON dynstat_theta_sd             =   8.4899210812049E-01
(PID.TID 0000.0001) %MON dynstat_theta_del2           =   1.9358768811586E-06
(PID.TID 0000.0001) %MON dynstat_salt_max             =   3.4700000000000E+01
(PID.TID 0000.0001) %MON dynstat_salt_min             =   3.4000000000000E+01
(PID.TID 0000.0001) %MON dynstat_salt_mean            =   3.4498015067033E+01
(PID.TID 0000.0001) %MON dynstat_salt_sd              =   2.7013240692869E-01
(PID.TID 0000.0001) %MON dynstat_salt_del2            =   7.6375445186840E-07
(PID.TID 0000.0001) %MON advcfl_uvel_max              =   1.8077962987435E-03
(PID.TID 0000.0001) %MON advcfl_vvel_max              =   1.3767435025533E-03
(PID.TID 0000.0001) %MON advcfl_wvel_max              =   3.9134448570282E-03
(PID.TID 0000.0001) %MON advcfl_W_hf_max              =   3.9134448570282E-03
(PID.TID 0000.0001) %MON pe_b_mean                    =  -6.8236464446184E-01
(PID.TID 0000.0001) %MON ke_max                       =   1.0803766752928E-04
(PID.TID 0000.0001) %MON ke_mean                      =   1.5055449065861E-07
(PID.TID 0000.0001) %MON ke_vol                       =   4.6182989139146E+12
(PID.TID 0000.0001) // =======================================================
(PID.TID 0000.0001) // End MONITOR dynamic field statistics
(PID.TID 0000.0001) // =======================================================
(PID.TID 0000.0001) // =======================================================
(PID.TID 0000.0001) // Begin OBCS MONITOR field statistics
(PID.TID 0000.0001) // =======================================================
(PID.TID 0000.0001) %MON obc_N_vVel_max               =  -2.6700564642091E-07
(PID.TID 0000.0001) %MON obc_N_vVel_min               =  -2.6700564642091E-07
(PID.TID 0000.0001) %MON obc_N_vVel_mean              =  -2.6700564642091E-07
(PID.TID 0000.0001) %MON obc_N_vVel_sd                =  -2.1330798877176E-27
(PID.TID 0000.0001) %MON obc_N_vVel_Int               =  -1.7622372663780E+01
(PID.TID 0000.0001) // =======================================================
(PID.TID 0000.0001) // End OBCS MONITOR field statistics
(PID.TID 0000.0001) // =======================================================
 cg2d: Sum(rhs),rhsMax =   3.01013422461371E+00  4.53046319973869E+02
(PID.TID 0000.0001)      cg2d_init_res =   2.36281754571297E-06
(PID.TID 0000.0001)      cg2d_iters(min,last) =      -1      74
(PID.TID 0000.0001)      cg2d_last_res =   6.97514294104803E-12
(PID.TID 0000.0001) // =======================================================
(PID.TID 0000.0001) // Begin MONITOR dynamic field statistics
(PID.TID 0000.0001) // =======================================================
(PID.TID 0000.0001) %MON time_tsnumber                =                   946
(PID.TID 0000.0001) %MON time_secondsf                =   9.4600000000000E+04
(PID.TID 0000.0001) %MON dynstat_eta_max              =   5.7980896022229E+00
(PID.TID 0000.0001) %MON dynstat_eta_min              =  -1.4173556934768E+01
(PID.TID 0000.0001) %MON dynstat_eta_mean             =  -2.5254263575716E+00
(PID.TID 0000.0001) %MON dynstat_eta_sd               =   4.9414690237727E+00
(PID.TID 0000.0001) %MON dynstat_eta_del2             =   1.9058379278877E-01
(PID.TID 0000.0001) %MON dynstat_uvel_max             =   4.1946606713612E-03
(PID.TID 0000.0001) %MON dynstat_uvel_min             =  -1.8121937134327E-02
(PID.TID 0000.0001) %MON dynstat_uvel_mean            =  -8.1870813998422E-10
(PID.TID 0000.0001) %MON dynstat_uvel_sd              =   4.8724500239346E-04
(PID.TID 0000.0001) %MON dynstat_uvel_del2            =   7.6955808939765E-07
(PID.TID 0000.0001) %MON dynstat_vvel_max             =   1.3799923348736E-02
(PID.TID 0000.0001) %MON dynstat_vvel_min             =  -5.0040725278873E-03
(PID.TID 0000.0001) %MON dynstat_vvel_mean            =  -2.4652890388882E-07
(PID.TID 0000.0001) %MON dynstat_vvel_sd              =   2.6406816558818E-04
(PID.TID 0000.0001) %MON dynstat_vvel_del2            =   6.9018830634921E-07
(PID.TID 0000.0001) %MON dynstat_wvel_max             =   7.4053522877635E-04
(PID.TID 0000.0001) %MON dynstat_wvel_min             =  -7.8521864912083E-04
(PID.TID 0000.0001) %MON dynstat_wvel_mean            =   3.2559309525809E-10
(PID.TID 0000.0001) %MON dynstat_wvel_sd              =   1.3416128988580E-05
(PID.TID 0000.0001) %MON dynstat_wvel_del2            =   5.5590688012912E-08
(PID.TID 0000.0001) %MON dynstat_theta_max            =   1.2000000000000E+00
(PID.TID 0000.0001) %MON dynstat_theta_min            =  -1.0000000000000E+00
(PID.TID 0000.0001) %MON dynstat_theta_mean           =   5.6525248905796E-01
(PID.TID 0000.0001) %MON dynstat_theta_sd             =   8.4899191429032E-01
(PID.TID 0000.0001) %MON dynstat_theta_del2           =   1.9401306107598E-06
(PID.TID 0000.0001) %MON dynstat_salt_max             =   3.4700000000000E+01
(PID.TID 0000.0001) %MON dynstat_salt_min             =   3.4000000000000E+01
(PID.TID 0000.0001) %MON dynstat_salt_mean            =   3.4498014879862E+01
(PID.TID 0000.0001) %MON dynstat_salt_sd              =   2.7013233489285E-01
(PID.TID 0000.0001) %MON dynstat_salt_del2            =   7.6544415888191E-07
(PID.TID 0000.0001) %MON advcfl_uvel_max              =   1.8121937134327E-03
(PID.TID 0000.0001) %MON advcfl_vvel_max              =   1.3799923348736E-03
(PID.TID 0000.0001) %MON advcfl_wvel_max              =   3.9260932456041E-03
(PID.TID 0000.0001) %MON advcfl_W_hf_max              =   3.9260932456041E-03
(PID.TID 0000.0001) %MON pe_b_mean                    =  -6.8236335696194E-01
(PID.TID 0000.0001) %MON ke_max                       =   1.0873172738844E-04
(PID.TID 0000.0001) %MON ke_mean                      =   1.5133735611134E-07
(PID.TID 0000.0001) %MON ke_vol                       =   4.6182989406483E+12
(PID.TID 0000.0001) // =======================================================
(PID.TID 0000.0001) // End MONITOR dynamic field statistics
(PID.TID 0000.0001) // =======================================================
(PID.TID 0000.0001) // =======================================================
(PID.TID 0000.0001) // Begin OBCS MONITOR field statistics
(PID.TID 0000.0001) // =======================================================
(PID.TID 0000.0001) %MON obc_N_vVel_max               =  -2.6765378376798E-07
(PID.TID 0000.0001) %MON obc_N_vVel_min               =  -2.6765378376798E-07
(PID.TID 0000.0001) %MON obc_N_vVel_mean              =  -2.6765378376798E-07
(PID.TID 0000.0001) %MON obc_N_vVel_sd                =  -3.3700137871042E-27
(PID.TID 0000.0001) %MON obc_N_vVel_Int               =  -1.7665149728687E+01
(PID.TID 0000.0001) // =======================================================
(PID.TID 0000.0001) // End OBCS MONITOR field statistics
(PID.TID 0000.0001) // =======================================================
 cg2d: Sum(rhs),rhsMax =   3.01012888496366E+00  4.53046313190355E+02
(PID.TID 0000.0001)      cg2d_init_res =   2.36732332510745E-06
(PID.TID 0000.0001)      cg2d_iters(min,last) =      -1      74
(PID.TID 0000.0001)      cg2d_last_res =   6.99202223720241E-12
(PID.TID 0000.0001) // =======================================================
(PID.TID 0000.0001) // Begin MONITOR dynamic field statistics
(PID.TID 0000.0001) // =======================================================
(PID.TID 0000.0001) %MON time_tsnumber                =                   947
(PID.TID 0000.0001) %MON time_secondsf                =   9.4700000000000E+04
(PID.TID 0000.0001) %MON dynstat_eta_max              =   5.7980927720714E+00
(PID.TID 0000.0001) %MON dynstat_eta_min              =  -1.4173547904923E+01
(PID.TID 0000.0001) %MON dynstat_eta_mean             =  -2.5254218399270E+00
(PID.TID 0000.0001) %MON dynstat_eta_sd               =   4.9414676865411E+00
(PID.TID 0000.0001) %MON dynstat_eta_del2             =   1.9058380387918E-01
(PID.TID 0000.0001) %MON dynstat_uvel_max             =   4.1993886612737E-03
(PID.TID 0000.0001) %MON dynstat_uvel_min             =  -1.8165976815548E-02
(PID.TID 0000.0001) %MON dynstat_uvel_mean            =  -8.5668887670265E-10
(PID.TID 0000.0001) %MON dynstat_uvel_sd              =   4.8857311799913E-04
(PID.TID 0000.0001) %MON dynstat_uvel_del2            =   7.7140536024000E-07
(PID.TID 0000.0001) %MON dynstat_vvel_max             =   1.3832454629968E-02
(PID.TID 0000.0001) %MON dynstat_vvel_min             =  -5.0158405830043E-03
(PID.TID 0000.0001) %MON dynstat_vvel_mean            =  -2.4552346507287E-07
(PID.TID 0000.0001) %MON dynstat_vvel_sd              =   2.6463687780356E-04
(PID.TID 0000.0001) %MON dynstat_vvel_del2            =   6.9173556535299E-07
(PID.TID 0000.0001) %MON dynstat_wvel_max             =   7.4253235725521E-04
(PID.TID 0000.0001) %MON dynstat_wvel_min             =  -7.8775539033765E-04
(PID.TID 0000.0001) %MON dynstat_wvel_mean            =   3.3292214696840E-10
(PID.TID 0000.0001) %MON dynstat_wvel_sd              =   1.3425250117097E-05
(PID.TID 0000.0001) %MON dynstat_wvel_del2            =   5.5795782269903E-08
(PID.TID 0000.0001) %MON dynstat_theta_max            =   1.2000000000000E+00
(PID.TID 0000.0001) %MON dynstat_theta_min            =  -1.0000000000000E+00
(PID.TID 0000.0001) %MON dynstat_theta_mean           =   5.6525201861298E-01
(PID.TID 0000.0001) %MON dynstat_theta_sd             =   8.4899172001753E-01
(PID.TID 0000.0001) %MON dynstat_theta_del2           =   1.9444007790541E-06
(PID.TID 0000.0001) %MON dynstat_salt_max             =   3.4700000000000E+01
(PID.TID 0000.0001) %MON dynstat_salt_min             =   3.4000000000000E+01
(PID.TID 0000.0001) %MON dynstat_salt_mean            =   3.4498014692315E+01
(PID.TID 0000.0001) %MON dynstat_salt_sd              =   2.7013226268320E-01
(PID.TID 0000.0001) %MON dynstat_salt_del2            =   7.6713927581793E-07
(PID.TID 0000.0001) %MON advcfl_uvel_max              =   1.8165976815548E-03
(PID.TID 0000.0001) %MON advcfl_vvel_max              =   1.3832454629968E-03
(PID.TID 0000.0001) %MON advcfl_wvel_max              =   3.9387769516883E-03
(PID.TID 0000.0001) %MON advcfl_W_hf_max              =   3.9387769516883E-03
(PID.TID 0000.0001) %MON pe_b_mean                    =  -6.8236206720526E-01
(PID.TID 0000.0001) %MON ke_max                       =   1.0942968523819E-04
(PID.TID 0000.0001) %MON ke_mean                      =   1.5212351012291E-07
(PID.TID 0000.0001) %MON ke_vol                       =   4.6182989674360E+12
(PID.TID 0000.0001) // =======================================================
(PID.TID 0000.0001) // End MONITOR dynamic field statistics
(PID.TID 0000.0001) // =======================================================
(PID.TID 0000.0001) // =======================================================
(PID.TID 0000.0001) // Begin OBCS MONITOR field statistics
(PID.TID 0000.0001) // =======================================================
(PID.TID 0000.0001) %MON obc_N_vVel_max               =  -2.6722332780906E-07
(PID.TID 0000.0001) %MON obc_N_vVel_min               =  -2.6722332780906E-07
(PID.TID 0000.0001) %MON obc_N_vVel_mean              =  -2.6722332780906E-07
(PID.TID 0000.0001) %MON obc_N_vVel_sd                =  -3.0292258760487E-28
(PID.TID 0000.0001) %MON obc_N_vVel_Int               =  -1.7636739635398E+01
(PID.TID 0000.0001) // =======================================================
(PID.TID 0000.0001) // End OBCS MONITOR field statistics
(PID.TID 0000.0001) // =======================================================
 cg2d: Sum(rhs),rhsMax =   3.01012353448721E+00  4.53046306829859E+02
(PID.TID 0000.0001)      cg2d_init_res =   2.37153965238587E-06
(PID.TID 0000.0001)      cg2d_iters(min,last) =      -1      74
(PID.TID 0000.0001)      cg2d_last_res =   7.00888852348950E-12
(PID.TID 0000.0001) // =======================================================
(PID.TID 0000.0001) // Begin MONITOR dynamic field statistics
(PID.TID 0000.0001) // =======================================================
(PID.TID 0000.0001) %MON time_tsnumber                =                   948
(PID.TID 0000.0001) %MON time_secondsf                =   9.4800000000000E+04
(PID.TID 0000.0001) %MON dynstat_eta_max              =   5.7980959397746E+00
(PID.TID 0000.0001) %MON dynstat_eta_min              =  -1.4173538853987E+01
(PID.TID 0000.0001) %MON dynstat_eta_mean             =  -2.5254173155575E+00
(PID.TID 0000.0001) %MON dynstat_eta_sd               =   4.9414663486776E+00
(PID.TID 0000.0001) %MON dynstat_eta_del2             =   1.9058381501048E-01
(PID.TID 0000.0001) %MON dynstat_uvel_max             =   4.2041106133901E-03
(PID.TID 0000.0001) %MON dynstat_uvel_min             =  -1.8210081937860E-02
(PID.TID 0000.0001) %MON dynstat_uvel_mean            =  -8.9526928761681E-10
(PID.TID 0000.0001) %MON dynstat_uvel_sd              =   4.8990436181133E-04
(PID.TID 0000.0001) %MON dynstat_uvel_del2            =   7.7325763739893E-07
(PID.TID 0000.0001) %MON dynstat_vvel_max             =   1.3865028803186E-02
(PID.TID 0000.0001) %MON dynstat_vvel_min             =  -5.0276301790797E-03
(PID.TID 0000.0001) %MON dynstat_vvel_mean            =  -2.4340865701180E-07
(PID.TID 0000.0001) %MON dynstat_vvel_sd              =   2.6520485881534E-04
(PID.TID 0000.0001) %MON dynstat_vvel_del2            =   6.9328482805235E-07
(PID.TID 0000.0001) %MON dynstat_wvel_max             =   7.4453322322055E-04
(PID.TID 0000.0001) %MON dynstat_wvel_min             =  -7.9029920875397E-04
(PID.TID 0000.0001) %MON dynstat_wvel_mean            =   3.3991129376212E-10
(PID.TID 0000.0001) %MON dynstat_wvel_sd              =   1.3431493962902E-05
(PID.TID 0000.0001) %MON dynstat_wvel_del2            =   5.5981894432659E-08
(PID.TID 0000.0001) %MON dynstat_theta_max            =   1.2000000000000E+00
(PID.TID 0000.0001) %MON dynstat_theta_min            =  -1.0000000000000E+00
(PID.TID 0000.0001) %MON dynstat_theta_mean           =   5.6525154722486E-01
(PID.TID 0000.0001) %MON dynstat_theta_sd             =   8.4899152530297E-01
(PID.TID 0000.0001) %MON dynstat_theta_del2           =   1.9486884007600E-06
(PID.TID 0000.0001) %MON dynstat_salt_max             =   3.4700000000000E+01
(PID.TID 0000.0001) %MON dynstat_salt_min             =   3.4000000000000E+01
(PID.TID 0000.0001) %MON dynstat_salt_mean            =   3.4498014504391E+01
(PID.TID 0000.0001) %MON dynstat_salt_sd              =   2.7013219030025E-01
(PID.TID 0000.0001) %MON dynstat_salt_del2            =   7.6883997262093E-07
(PID.TID 0000.0001) %MON advcfl_uvel_max              =   1.8210081937860E-03
(PID.TID 0000.0001) %MON advcfl_vvel_max              =   1.3865028803186E-03
(PID.TID 0000.0001) %MON advcfl_wvel_max              =   3.9514960437699E-03
(PID.TID 0000.0001) %MON advcfl_W_hf_max              =   3.9514960437699E-03
(PID.TID 0000.0001) %MON pe_b_mean                    =  -6.8236077542711E-01
(PID.TID 0000.0001) %MON ke_max                       =   1.1013155843548E-04
(PID.TID 0000.0001) %MON ke_mean                      =   1.5291302782082E-07
(PID.TID 0000.0001) %MON ke_vol                       =   4.6182989942708E+12
(PID.TID 0000.0001) // =======================================================
(PID.TID 0000.0001) // End MONITOR dynamic field statistics
(PID.TID 0000.0001) // =======================================================
(PID.TID 0000.0001) // =======================================================
(PID.TID 0000.0001) // Begin OBCS MONITOR field statistics
(PID.TID 0000.0001) // =======================================================
(PID.TID 0000.0001) %MON obc_N_vVel_max               =  -2.6569834617165E-07
(PID.TID 0000.0001) %MON obc_N_vVel_min               =  -2.6569834617166E-07
(PID.TID 0000.0001) %MON obc_N_vVel_mean              =  -2.6569834617165E-07
(PID.TID 0000.0001) %MON obc_N_vVel_sd                =   3.7932601955615E-14
(PID.TID 0000.0001) %MON obc_N_vVel_Int               =  -1.7536090847329E+01
(PID.TID 0000.0001) // =======================================================
(PID.TID 0000.0001) // End OBCS MONITOR field statistics
(PID.TID 0000.0001) // =======================================================
 cg2d: Sum(rhs),rhsMax =   3.01011817458123E+00  4.53046300899378E+02
(PID.TID 0000.0001)      cg2d_init_res =   2.37540609672528E-06
(PID.TID 0000.0001)      cg2d_iters(min,last) =      -1      74
(PID.TID 0000.0001)      cg2d_last_res =   7.02571222672083E-12
(PID.TID 0000.0001) // =======================================================
(PID.TID 0000.0001) // Begin MONITOR dynamic field statistics
(PID.TID 0000.0001) // =======================================================
(PID.TID 0000.0001) %MON time_tsnumber                =                   949
(PID.TID 0000.0001) %MON time_secondsf                =   9.4900000000000E+04
(PID.TID 0000.0001) %MON dynstat_eta_max              =   5.7980991032633E+00
(PID.TID 0000.0001) %MON dynstat_eta_min              =  -1.4173529784095E+01
(PID.TID 0000.0001) %MON dynstat_eta_mean             =  -2.5254127856741E+00
(PID.TID 0000.0001) %MON dynstat_eta_sd               =   4.9414650105741E+00
(PID.TID 0000.0001) %MON dynstat_eta_del2             =   1.9058382618326E-01
(PID.TID 0000.0001) %MON dynstat_uvel_max             =   4.2088264950912E-03
(PID.TID 0000.0001) %MON dynstat_uvel_min             =  -1.8254252406987E-02
(PID.TID 0000.0001) %MON dynstat_uvel_mean            =  -9.3418092524034E-10
(PID.TID 0000.0001) %MON dynstat_uvel_sd              =   4.9123873066138E-04
(PID.TID 0000.0001) %MON dynstat_uvel_del2            =   7.7511493695513E-07
(PID.TID 0000.0001) %MON dynstat_vvel_max             =   1.3897645801059E-02
(PID.TID 0000.0001) %MON dynstat_vvel_min             =  -5.0394413494468E-03
(PID.TID 0000.0001) %MON dynstat_vvel_mean            =  -2.4017846698596E-07
(PID.TID 0000.0001) %MON dynstat_vvel_sd              =   2.6577240390169E-04
(PID.TID 0000.0001) %MON dynstat_vvel_del2            =   6.9483439209904E-07
(PID.TID 0000.0001) %MON dynstat_wvel_max             =   7.4653782831843E-04
(PID.TID 0000.0001) %MON dynstat_wvel_min             =  -7.9285011800014E-04
(PID.TID 0000.0001) %MON dynstat_wvel_mean            =   3.4651193695405E-10
(PID.TID 0000.0001) %MON dynstat_wvel_sd              =   1.3434915577462E-05
(PID.TID 0000.0001) %MON dynstat_wvel_del2            =   5.6143438971311E-08
(PID.TID 0000.0001) %MON dynstat_theta_max            =   1.2000000000000E+00
(PID.TID 0000.0001) %MON dynstat_theta_min            =  -1.0000000000000E+00
(PID.TID 0000.0001) %MON dynstat_theta_mean           =   5.6525107489054E-01
(PID.TID 0000.0001) %MON dynstat_theta_sd             =   8.4899133014581E-01
(PID.TID 0000.0001) %MON dynstat_theta_del2           =   1.9529938212204E-06
(PID.TID 0000.0001) %MON dynstat_salt_max             =   3.4700000000000E+01
(PID.TID 0000.0001) %MON dynstat_salt_min             =   3.4000000000000E+01
(PID.TID 0000.0001) %MON dynstat_salt_mean            =   3.4498014316089E+01
(PID.TID 0000.0001) %MON dynstat_salt_sd              =   2.7013211774349E-01
(PID.TID 0000.0001) %MON dynstat_salt_del2            =   7.7054647385815E-07
(PID.TID 0000.0001) %MON advcfl_uvel_max              =   1.8254252406987E-03
(PID.TID 0000.0001) %MON advcfl_vvel_max              =   1.3897645801059E-03
(PID.TID 0000.0001) %MON advcfl_wvel_max              =   3.9642505900007E-03
(PID.TID 0000.0001) %MON advcfl_W_hf_max              =   3.9642505900007E-03
(PID.TID 0000.0001) %MON pe_b_mean                    =  -6.8235948186407E-01
(PID.TID 0000.0001) %MON ke_max                       =   1.1083736438748E-04
(PID.TID 0000.0001) %MON ke_mean                      =   1.5370599716990E-07
(PID.TID 0000.0001) %MON ke_vol                       =   4.6182990211456E+12
(PID.TID 0000.0001) // =======================================================
(PID.TID 0000.0001) // End MONITOR dynamic field statistics
(PID.TID 0000.0001) // =======================================================
(PID.TID 0000.0001) // =======================================================
(PID.TID 0000.0001) // Begin OBCS MONITOR field statistics
(PID.TID 0000.0001) // =======================================================
(PID.TID 0000.0001) %MON obc_N_vVel_max               =  -2.6306954115968E-07
(PID.TID 0000.0001) %MON obc_N_vVel_min               =  -2.6306954115969E-07
(PID.TID 0000.0001) %MON obc_N_vVel_mean              =  -2.6306954115968E-07
(PID.TID 0000.0001) %MON obc_N_vVel_sd                =   6.7126548329423E-14
(PID.TID 0000.0001) %MON obc_N_vVel_Int               =  -1.7362589716539E+01
(PID.TID 0000.0001) // =======================================================
(PID.TID 0000.0001) // End OBCS MONITOR field statistics
(PID.TID 0000.0001) // =======================================================
 cg2d: Sum(rhs),rhsMax =   3.01011280665647E+00  4.53046295404013E+02
(PID.TID 0000.0001)      cg2d_init_res =   2.37889280976481E-06
(PID.TID 0000.0001)      cg2d_iters(min,last) =      -1      74
(PID.TID 0000.0001)      cg2d_last_res =   7.04244930424181E-12
(PID.TID 0000.0001) // =======================================================
(PID.TID 0000.0001) // Begin MONITOR dynamic field statistics
(PID.TID 0000.0001) // =======================================================
(PID.TID 0000.0001) %MON time_tsnumber                =                   950
(PID.TID 0000.0001) %MON time_secondsf                =   9.5000000000000E+04
(PID.TID 0000.0001) %MON dynstat_eta_max              =   5.7981022604742E+00
(PID.TID 0000.0001) %MON dynstat_eta_min              =  -1.4173520697353E+01
(PID.TID 0000.0001) %MON dynstat_eta_mean             =  -2.5254082514887E+00
(PID.TID 0000.0001) %MON dynstat_eta_sd               =   4.9414636726159E+00
(PID.TID 0000.0001) %MON dynstat_eta_del2             =   1.9058383739805E-01
(PID.TID 0000.0001) %MON dynstat_uvel_max             =   4.2135362738751E-03
(PID.TID 0000.0001) %MON dynstat_uvel_min             =  -1.8298488127523E-02
(PID.TID 0000.0001) %MON dynstat_uvel_mean            =  -9.7314061441784E-10
(PID.TID 0000.0001) %MON dynstat_uvel_sd              =   4.9257622130535E-04
(PID.TID 0000.0001) %MON dynstat_uvel_del2            =   7.7697727498131E-07
(PID.TID 0000.0001) %MON dynstat_vvel_max             =   1.3930305555043E-02
(PID.TID 0000.0001) %MON dynstat_vvel_min             =  -5.0512741278865E-03
(PID.TID 0000.0001) %MON dynstat_vvel_mean            =  -2.3583418572978E-07
(PID.TID 0000.0001) %MON dynstat_vvel_sd              =   2.6633985305066E-04
(PID.TID 0000.0001) %MON dynstat_vvel_del2            =   6.9638308965875E-07
(PID.TID 0000.0001) %MON dynstat_wvel_max             =   7.4854617417616E-04
(PID.TID 0000.0001) %MON dynstat_wvel_min             =  -7.9540813153886E-04
(PID.TID 0000.0001) %MON dynstat_wvel_mean            =   3.5267673874923E-10
(PID.TID 0000.0001) %MON dynstat_wvel_sd              =   1.3435854704668E-05
(PID.TID 0000.0001) %MON dynstat_wvel_del2            =   5.6277610134003E-08
(PID.TID 0000.0001) %MON dynstat_theta_max            =   1.2000000000000E+00
(PID.TID 0000.0001) %MON dynstat_theta_min            =  -1.0000000000000E+00
(PID.TID 0000.0001) %MON dynstat_theta_mean           =   5.6525060160716E-01
(PID.TID 0000.0001) %MON dynstat_theta_sd             =   8.4899113454397E-01
(PID.TID 0000.0001) %MON dynstat_theta_del2           =   1.9573160922043E-06
(PID.TID 0000.0001) %MON dynstat_salt_max             =   3.4700000000000E+01
(PID.TID 0000.0001) %MON dynstat_salt_min             =   3.4000000000000E+01
(PID.TID 0000.0001) %MON dynstat_salt_mean            =   3.4498014127408E+01
(PID.TID 0000.0001) %MON dynstat_salt_sd              =   2.7013204501232E-01
(PID.TID 0000.0001) %MON dynstat_salt_del2            =   7.7225865825721E-07
(PID.TID 0000.0001) %MON advcfl_uvel_max              =   1.8298488127523E-03
(PID.TID 0000.0001) %MON advcfl_vvel_max              =   1.3930305555043E-03
(PID.TID 0000.0001) %MON advcfl_wvel_max              =   3.9770406576943E-03
(PID.TID 0000.0001) %MON advcfl_W_hf_max              =   3.9770406576943E-03
(PID.TID 0000.0001) %MON pe_b_mean                    =  -6.8235818675137E-01
(PID.TID 0000.0001) %MON ke_max                       =   1.1154712055222E-04
(PID.TID 0000.0001) %MON ke_mean                      =   1.5450251869509E-07
(PID.TID 0000.0001) %MON ke_vol                       =   4.6182990480531E+12
(PID.TID 0000.0001) // =======================================================
(PID.TID 0000.0001) // End MONITOR dynamic field statistics
(PID.TID 0000.0001) // =======================================================
(PID.TID 0000.0001) // =======================================================
(PID.TID 0000.0001) // Begin OBCS MONITOR field statistics
(PID.TID 0000.0001) // =======================================================
(PID.TID 0000.0001) %MON obc_N_vVel_max               =  -2.5933467591364E-07
(PID.TID 0000.0001) %MON obc_N_vVel_min               =  -2.5933467591365E-07
(PID.TID 0000.0001) %MON obc_N_vVel_mean              =  -2.5933467591365E-07
(PID.TID 0000.0001) %MON obc_N_vVel_sd                =  -2.7263032884438E-27
(PID.TID 0000.0001) %MON obc_N_vVel_Int               =  -1.7116088610301E+01
(PID.TID 0000.0001) // =======================================================
(PID.TID 0000.0001) // End OBCS MONITOR field statistics
(PID.TID 0000.0001) // =======================================================
 cg2d: Sum(rhs),rhsMax =   3.01010743213831E+00  4.53046290345806E+02
(PID.TID 0000.0001)      cg2d_init_res =   2.38198544833826E-06
(PID.TID 0000.0001)      cg2d_iters(min,last) =      -1      74
(PID.TID 0000.0001)      cg2d_last_res =   7.05908385240213E-12
(PID.TID 0000.0001) // =======================================================
(PID.TID 0000.0001) // Begin MONITOR dynamic field statistics
(PID.TID 0000.0001) // =======================================================
(PID.TID 0000.0001) %MON time_tsnumber                =                   951
(PID.TID 0000.0001) %MON time_secondsf                =   9.5100000000000E+04
(PID.TID 0000.0001) %MON dynstat_eta_max              =   5.7981054093436E+00
(PID.TID 0000.0001) %MON dynstat_eta_min              =  -1.4173511595895E+01
(PID.TID 0000.0001) %MON dynstat_eta_mean             =  -2.5254037142085E+00
(PID.TID 0000.0001) %MON dynstat_eta_sd               =   4.9414623351763E+00
(PID.TID 0000.0001) %MON dynstat_eta_del2             =   1.9058384865509E-01
(PID.TID 0000.0001) %MON dynstat_uvel_max             =   4.2182399171509E-03
(PID.TID 0000.0001) %MON dynstat_uvel_min             =  -1.8342789003074E-02
(PID.TID 0000.0001) %MON dynstat_uvel_mean            =  -1.0118506065199E-09
(PID.TID 0000.0001) %MON dynstat_uvel_sd              =   4.9391683049965E-04
(PID.TID 0000.0001) %MON dynstat_uvel_del2            =   7.7884466744147E-07
(PID.TID 0000.0001) %MON dynstat_vvel_max             =   1.3963007995181E-02
(PID.TID 0000.0001) %MON dynstat_vvel_min             =  -5.0631285486649E-03
(PID.TID 0000.0001) %MON dynstat_vvel_mean            =  -2.3038460056620E-07
(PID.TID 0000.0001) %MON dynstat_vvel_sd              =   2.6690758504902E-04
(PID.TID 0000.0001) %MON dynstat_vvel_del2            =   6.9793034115499E-07
(PID.TID 0000.0001) %MON dynstat_wvel_max             =   7.5055826238351E-04
(PID.TID 0000.0001) %MON dynstat_wvel_min             =  -7.9797326277008E-04
(PID.TID 0000.0001) %MON dynstat_wvel_mean            =   3.5835878613809E-10
(PID.TID 0000.0001) %MON dynstat_wvel_sd              =   1.3434945691934E-05
(PID.TID 0000.0001) %MON dynstat_wvel_del2            =   5.6384601326159E-08
(PID.TID 0000.0001) %MON dynstat_theta_max            =   1.2000000000000E+00
(PID.TID 0000.0001) %MON dynstat_theta_min            =  -1.0000000000000E+00
(PID.TID 0000.0001) %MON dynstat_theta_mean           =   5.6525012737234E-01
(PID.TID 0000.0001) %MON dynstat_theta_sd             =   8.4899093849653E-01
(PID.TID 0000.0001) %MON dynstat_theta_del2           =   1.9616546480671E-06
(PID.TID 0000.0001) %MON dynstat_salt_max             =   3.4700000000000E+01
(PID.TID 0000.0001) %MON dynstat_salt_min             =   3.4000000000000E+01
(PID.TID 0000.0001) %MON dynstat_salt_mean            =   3.4498013938347E+01
(PID.TID 0000.0001) %MON dynstat_salt_sd              =   2.7013197210633E-01
(PID.TID 0000.0001) %MON dynstat_salt_del2            =   7.7397591421914E-07
(PID.TID 0000.0001) %MON advcfl_uvel_max              =   1.8342789003074E-03
(PID.TID 0000.0001) %MON advcfl_vvel_max              =   1.3963007995181E-03
(PID.TID 0000.0001) %MON advcfl_wvel_max              =   3.9898663138504E-03
(PID.TID 0000.0001) %MON advcfl_W_hf_max              =   3.9898663138504E-03
(PID.TID 0000.0001) %MON pe_b_mean                    =  -6.8235689032181E-01
(PID.TID 0000.0001) %MON ke_max                       =   1.1226084444025E-04
(PID.TID 0000.0001) %MON ke_mean                      =   1.5530270406579E-07
(PID.TID 0000.0001) %MON ke_vol                       =   4.6182990749862E+12
(PID.TID 0000.0001) // =======================================================
(PID.TID 0000.0001) // End MONITOR dynamic field statistics
(PID.TID 0000.0001) // =======================================================
(PID.TID 0000.0001) // =======================================================
(PID.TID 0000.0001) // Begin OBCS MONITOR field statistics
(PID.TID 0000.0001) // =======================================================
(PID.TID 0000.0001) %MON obc_N_vVel_max               =  -2.5449870423192E-07
(PID.TID 0000.0001) %MON obc_N_vVel_min               =  -2.5449870423193E-07
(PID.TID 0000.0001) %MON obc_N_vVel_mean              =  -2.5449870423193E-07
(PID.TID 0000.0001) %MON obc_N_vVel_sd                =  -5.8060162624266E-27
(PID.TID 0000.0001) %MON obc_N_vVel_Int               =  -1.6796914479307E+01
(PID.TID 0000.0001) // =======================================================
(PID.TID 0000.0001) // End OBCS MONITOR field statistics
(PID.TID 0000.0001) // =======================================================
 cg2d: Sum(rhs),rhsMax =   3.01010205245564E+00  4.53046285723969E+02
(PID.TID 0000.0001)      cg2d_init_res =   2.38469333935791E-06
(PID.TID 0000.0001)      cg2d_iters(min,last) =      -1      74
(PID.TID 0000.0001)      cg2d_last_res =   7.07506435303791E-12
(PID.TID 0000.0001) // =======================================================
(PID.TID 0000.0001) // Begin MONITOR dynamic field statistics
(PID.TID 0000.0001) // =======================================================
(PID.TID 0000.0001) %MON time_tsnumber                =                   952
(PID.TID 0000.0001) %MON time_secondsf                =   9.5200000000000E+04
(PID.TID 0000.0001) %MON dynstat_eta_max              =   5.7981085477876E+00
(PID.TID 0000.0001) %MON dynstat_eta_min              =  -1.4173502481791E+01
(PID.TID 0000.0001) %MON dynstat_eta_mean             =  -2.5253991750280E+00
(PID.TID 0000.0001) %MON dynstat_eta_sd               =   4.9414609986183E+00
(PID.TID 0000.0001) %MON dynstat_eta_del2             =   1.9058385995463E-01
(PID.TID 0000.0001) %MON dynstat_uvel_max             =   4.2229373922549E-03
(PID.TID 0000.0001) %MON dynstat_uvel_min             =  -1.8387154933778E-02
(PID.TID 0000.0001) %MON dynstat_uvel_mean            =  -1.0500313829458E-09
(PID.TID 0000.0001) %MON dynstat_uvel_sd              =   4.9526055556018E-04
(PID.TID 0000.0001) %MON dynstat_uvel_del2            =   7.8071712076893E-07
(PID.TID 0000.0001) %MON dynstat_vvel_max             =   1.3995753050235E-02
(PID.TID 0000.0001) %MON dynstat_vvel_min             =  -5.0750046467227E-03
(PID.TID 0000.0001) %MON dynstat_vvel_mean            =  -2.2384615104200E-07
(PID.TID 0000.0001) %MON dynstat_vvel_sd              =   2.6747600749323E-04
(PID.TID 0000.0001) %MON dynstat_vvel_del2            =   6.9947614222087E-07
(PID.TID 0000.0001) %MON dynstat_wvel_max             =   7.5257409449930E-04
(PID.TID 0000.0001) %MON dynstat_wvel_min             =  -8.0054552497816E-04
(PID.TID 0000.0001) %MON dynstat_wvel_mean            =   3.6351341132045E-10
(PID.TID 0000.0001) %MON dynstat_wvel_sd              =   1.3433096762753E-05
(PID.TID 0000.0001) %MON dynstat_wvel_del2            =   5.6467524735822E-08
(PID.TID 0000.0001) %MON dynstat_theta_max            =   1.2000000000000E+00
(PID.TID 0000.0001) %MON dynstat_theta_min            =  -1.0000000000000E+00
(PID.TID 0000.0001) %MON dynstat_theta_mean           =   5.6524965218421E-01
(PID.TID 0000.0001) %MON dynstat_theta_sd             =   8.4899074200523E-01
(PID.TID 0000.0001) %MON dynstat_theta_del2           =   1.9660074527585E-06
(PID.TID 0000.0001) %MON dynstat_salt_max             =   3.4700000000000E+01
(PID.TID 0000.0001) %MON dynstat_salt_min             =   3.4000000000000E+01
(PID.TID 0000.0001) %MON dynstat_salt_mean            =   3.4498013748906E+01
(PID.TID 0000.0001) %MON dynstat_salt_sd              =   2.7013189902586E-01
(PID.TID 0000.0001) %MON dynstat_salt_del2            =   7.7569791294031E-07
(PID.TID 0000.0001) %MON advcfl_uvel_max              =   1.8387154933778E-03
(PID.TID 0000.0001) %MON advcfl_vvel_max              =   1.3995753050235E-03
(PID.TID 0000.0001) %MON advcfl_wvel_max              =   4.0027276248908E-03
(PID.TID 0000.0001) %MON advcfl_W_hf_max              =   4.0027276248908E-03
(PID.TID 0000.0001) %MON pe_b_mean                    =  -6.8235559280459E-01
(PID.TID 0000.0001) %MON ke_max                       =   1.1297855386451E-04
(PID.TID 0000.0001) %MON ke_mean                      =   1.5610667380606E-07
(PID.TID 0000.0001) %MON ke_vol                       =   4.6182991019376E+12
(PID.TID 0000.0001) // =======================================================
(PID.TID 0000.0001) // End MONITOR dynamic field statistics
(PID.TID 0000.0001) // =======================================================
(PID.TID 0000.0001) // =======================================================
(PID.TID 0000.0001) // Begin OBCS MONITOR field statistics
(PID.TID 0000.0001) // =======================================================
(PID.TID 0000.0001) %MON obc_N_vVel_max               =  -2.4857407996982E-07
(PID.TID 0000.0001) %MON obc_N_vVel_min               =  -2.4857407996983E-07
(PID.TID 0000.0001) %MON obc_N_vVel_mean              =  -2.4857407996982E-07
(PID.TID 0000.0001) %MON obc_N_vVel_sd                =   4.7664655742348E-14
(PID.TID 0000.0001) %MON obc_N_vVel_Int               =  -1.6405889278008E+01
(PID.TID 0000.0001) // =======================================================
(PID.TID 0000.0001) // End OBCS MONITOR field statistics
(PID.TID 0000.0001) // =======================================================
 cg2d: Sum(rhs),rhsMax =   3.01009666903015E+00  4.53046281534840E+02
(PID.TID 0000.0001)      cg2d_init_res =   2.38710006878770E-06
(PID.TID 0000.0001)      cg2d_iters(min,last) =      -1      74
(PID.TID 0000.0001)      cg2d_last_res =   7.09139669088204E-12
(PID.TID 0000.0001) // =======================================================
(PID.TID 0000.0001) // Begin MONITOR dynamic field statistics
(PID.TID 0000.0001) // =======================================================
(PID.TID 0000.0001) %MON time_tsnumber                =                   953
(PID.TID 0000.0001) %MON time_secondsf                =   9.5300000000000E+04
(PID.TID 0000.0001) %MON dynstat_eta_max              =   5.7981116738671E+00
(PID.TID 0000.0001) %MON dynstat_eta_min              =  -1.4173493357075E+01
(PID.TID 0000.0001) %MON dynstat_eta_mean             =  -2.5253946351195E+00
(PID.TID 0000.0001) %MON dynstat_eta_sd               =   4.9414596632930E+00
(PID.TID 0000.0001) %MON dynstat_eta_del2             =   1.9058387129708E-01
(PID.TID 0000.0001) %MON dynstat_uvel_max             =   4.2276286663796E-03
(PID.TID 0000.0001) %MON dynstat_uvel_min             =  -1.8431585820197E-02
(PID.TID 0000.0001) %MON dynstat_uvel_mean            =  -1.0873583622485E-09
(PID.TID 0000.0001) %MON dynstat_uvel_sd              =   4.9660739356929E-04
(PID.TID 0000.0001) %MON dynstat_uvel_del2            =   7.8259464961361E-07
(PID.TID 0000.0001) %MON dynstat_vvel_max             =   1.4028540647610E-02
(PID.TID 0000.0001) %MON dynstat_vvel_min             =  -5.0869024583173E-03
(PID.TID 0000.0001) %MON dynstat_vvel_mean            =  -2.1624303233752E-07
(PID.TID 0000.0001) %MON dynstat_vvel_sd              =   2.6804554244242E-04
(PID.TID 0000.0001) %MON dynstat_vvel_del2            =   7.0102098646956E-07
(PID.TID 0000.0001) %MON dynstat_wvel_max             =   7.5459367211028E-04
(PID.TID 0000.0001) %MON dynstat_wvel_min             =  -8.0312493121496E-04
(PID.TID 0000.0001) %MON dynstat_wvel_mean            =   3.6809725022543E-10
(PID.TID 0000.0001) %MON dynstat_wvel_sd              =   1.3431438787707E-05
(PID.TID 0000.0001) %MON dynstat_wvel_del2            =   5.6532029587838E-08
(PID.TID 0000.0001) %MON dynstat_theta_max            =   1.2000000000000E+00
(PID.TID 0000.0001) %MON dynstat_theta_min            =  -1.0000000000000E+00
(PID.TID 0000.0001) %MON dynstat_theta_mean           =   5.6524917604134E-01
(PID.TID 0000.0001) %MON dynstat_theta_sd             =   8.4899054507199E-01
(PID.TID 0000.0001) %MON dynstat_theta_del2           =   1.9703709413200E-06
(PID.TID 0000.0001) %MON dynstat_salt_max             =   3.4700000000000E+01
(PID.TID 0000.0001) %MON dynstat_salt_min             =   3.4000000000000E+01
(PID.TID 0000.0001) %MON dynstat_salt_mean            =   3.4498013559083E+01
(PID.TID 0000.0001) %MON dynstat_salt_sd              =   2.7013182577183E-01
(PID.TID 0000.0001) %MON dynstat_salt_del2            =   7.7742422422915E-07
(PID.TID 0000.0001) %MON advcfl_uvel_max              =   1.8431585820197E-03
(PID.TID 0000.0001) %MON advcfl_vvel_max              =   1.4028540647610E-03
(PID.TID 0000.0001) %MON advcfl_wvel_max              =   4.0156246560748E-03
(PID.TID 0000.0001) %MON advcfl_W_hf_max              =   4.0156246560748E-03
(PID.TID 0000.0001) %MON pe_b_mean                    =  -6.8235429442314E-01
(PID.TID 0000.0001) %MON ke_max                       =   1.1370026758600E-04
(PID.TID 0000.0001) %MON ke_mean                      =   1.5691455314967E-07
(PID.TID 0000.0001) %MON ke_vol                       =   4.6182991289003E+12
(PID.TID 0000.0001) // =======================================================
(PID.TID 0000.0001) // End MONITOR dynamic field statistics
(PID.TID 0000.0001) // =======================================================
(PID.TID 0000.0001) // =======================================================
(PID.TID 0000.0001) // Begin OBCS MONITOR field statistics
(PID.TID 0000.0001) // =======================================================
(PID.TID 0000.0001) %MON obc_N_vVel_max               =  -2.4158088392122E-07
(PID.TID 0000.0001) %MON obc_N_vVel_min               =  -2.4158088392123E-07
(PID.TID 0000.0001) %MON obc_N_vVel_mean              =  -2.4158088392122E-07
(PID.TID 0000.0001) %MON obc_N_vVel_sd                =   7.0698109560867E-14
(PID.TID 0000.0001) %MON obc_N_vVel_Int               =  -1.5944338338801E+01
(PID.TID 0000.0001) // =======================================================
(PID.TID 0000.0001) // End OBCS MONITOR field statistics
(PID.TID 0000.0001) // =======================================================
 cg2d: Sum(rhs),rhsMax =   3.01009128326724E+00  4.53046277771807E+02
(PID.TID 0000.0001)      cg2d_init_res =   2.38930937831309E-06
(PID.TID 0000.0001)      cg2d_iters(min,last) =      -1      74
(PID.TID 0000.0001)      cg2d_last_res =   7.10782901206178E-12
(PID.TID 0000.0001) // =======================================================
(PID.TID 0000.0001) // Begin MONITOR dynamic field statistics
(PID.TID 0000.0001) // =======================================================
(PID.TID 0000.0001) %MON time_tsnumber                =                   954
(PID.TID 0000.0001) %MON time_secondsf                =   9.5400000000000E+04
(PID.TID 0000.0001) %MON dynstat_eta_max              =   5.7981147856429E+00
(PID.TID 0000.0001) %MON dynstat_eta_min              =  -1.4173484223718E+01
(PID.TID 0000.0001) %MON dynstat_eta_mean             =  -2.5253900956252E+00
(PID.TID 0000.0001) %MON dynstat_eta_sd               =   4.9414583295337E+00
(PID.TID 0000.0001) %MON dynstat_eta_del2             =   1.9058388268283E-01
(PID.TID 0000.0001) %MON dynstat_uvel_max             =   4.2323137067157E-03
(PID.TID 0000.0001) %MON dynstat_uvel_min             =  -1.8476081562643E-02
(PID.TID 0000.0001) %MON dynstat_uvel_mean            =  -1.1234954218193E-09
(PID.TID 0000.0001) %MON dynstat_uvel_sd              =   4.9795734158295E-04
(PID.TID 0000.0001) %MON dynstat_uvel_del2            =   7.8447727207661E-07
(PID.TID 0000.0001) %MON dynstat_vvel_max             =   1.4061370713289E-02
(PID.TID 0000.0001) %MON dynstat_vvel_min             =  -5.0988220188497E-03
(PID.TID 0000.0001) %MON dynstat_vvel_mean            =  -2.0760722240296E-07
(PID.TID 0000.0001) %MON dynstat_vvel_sd              =   2.6861660941774E-04
(PID.TID 0000.0001) %MON dynstat_vvel_del2            =   7.0256573656410E-07
(PID.TID 0000.0001) %MON dynstat_wvel_max             =   7.5661699664401E-04
(PID.TID 0000.0001) %MON dynstat_wvel_min             =  -8.0571149455686E-04
(PID.TID 0000.0001) %MON dynstat_wvel_mean            =   3.7206935444707E-10
(PID.TID 0000.0001) %MON dynstat_wvel_sd              =   1.3431248663792E-05
(PID.TID 0000.0001) %MON dynstat_wvel_del2            =   5.6585679098364E-08
(PID.TID 0000.0001) %MON dynstat_theta_max            =   1.2000000000000E+00
(PID.TID 0000.0001) %MON dynstat_theta_min            =  -1.0000000000000E+00
(PID.TID 0000.0001) %MON dynstat_theta_mean           =   5.6524869894280E-01
(PID.TID 0000.0001) %MON dynstat_theta_sd             =   8.4899034769977E-01
(PID.TID 0000.0001) %MON dynstat_theta_del2           =   1.9747442967272E-06
(PID.TID 0000.0001) %MON dynstat_salt_max             =   3.4700000000000E+01
(PID.TID 0000.0001) %MON dynstat_salt_min             =   3.4000000000000E+01
(PID.TID 0000.0001) %MON dynstat_salt_mean            =   3.4498013368878E+01
(PID.TID 0000.0001) %MON dynstat_salt_sd              =   2.7013175234484E-01
(PID.TID 0000.0001) %MON dynstat_salt_del2            =   7.7915417135043E-07
(PID.TID 0000.0001) %MON advcfl_uvel_max              =   1.8476081562643E-03
(PID.TID 0000.0001) %MON advcfl_vvel_max              =   1.4061370713289E-03
(PID.TID 0000.0001) %MON advcfl_wvel_max              =   4.0285574727843E-03
(PID.TID 0000.0001) %MON advcfl_W_hf_max              =   4.0285574727843E-03
(PID.TID 0000.0001) %MON pe_b_mean                    =  -6.8235299539339E-01
(PID.TID 0000.0001) %MON ke_max                       =   1.1442600378778E-04
(PID.TID 0000.0001) %MON ke_mean                      =   1.5772646761765E-07
(PID.TID 0000.0001) %MON ke_vol                       =   4.6182991558674E+12
(PID.TID 0000.0001) // =======================================================
(PID.TID 0000.0001) // End MONITOR dynamic field statistics
(PID.TID 0000.0001) // =======================================================
(PID.TID 0000.0001) // =======================================================
(PID.TID 0000.0001) // Begin OBCS MONITOR field statistics
(PID.TID 0000.0001) // =======================================================
(PID.TID 0000.0001) %MON obc_N_vVel_max               =  -2.3354682663674E-07
(PID.TID 0000.0001) %MON obc_N_vVel_min               =  -2.3354682663675E-07
(PID.TID 0000.0001) %MON obc_N_vVel_mean              =  -2.3354682663674E-07
(PID.TID 0000.0001) %MON obc_N_vVel_sd                =   2.4485389275402E-14
(PID.TID 0000.0001) %MON obc_N_vVel_Int               =  -1.5414090558025E+01
(PID.TID 0000.0001) // =======================================================
(PID.TID 0000.0001) // End OBCS MONITOR field statistics
(PID.TID 0000.0001) // =======================================================
 cg2d: Sum(rhs),rhsMax =   3.01008589654448E+00  4.53046274425342E+02
(PID.TID 0000.0001)      cg2d_init_res =   2.39138131644016E-06
(PID.TID 0000.0001)      cg2d_iters(min,last) =      -1      74
(PID.TID 0000.0001)      cg2d_last_res =   7.12385649541438E-12
(PID.TID 0000.0001) // =======================================================
(PID.TID 0000.0001) // Begin MONITOR dynamic field statistics
(PID.TID 0000.0001) // =======================================================
(PID.TID 0000.0001) %MON time_tsnumber                =                   955
(PID.TID 0000.0001) %MON time_secondsf                =   9.5500000000000E+04
(PID.TID 0000.0001) %MON dynstat_eta_max              =   5.7981178812462E+00
(PID.TID 0000.0001) %MON dynstat_eta_min              =  -1.4173475083612E+01
(PID.TID 0000.0001) %MON dynstat_eta_mean             =  -2.5253855576477E+00
(PID.TID 0000.0001) %MON dynstat_eta_sd               =   4.9414569976510E+00
(PID.TID 0000.0001) %MON dynstat_eta_del2             =   1.9058389411194E-01
(PID.TID 0000.0001) %MON dynstat_uvel_max             =   4.2369924802284E-03
(PID.TID 0000.0001) %MON dynstat_uvel_min             =  -1.8520642060787E-02
(PID.TID 0000.0001) %MON dynstat_uvel_mean            =  -1.1581340878341E-09
(PID.TID 0000.0001) %MON dynstat_uvel_sd              =   4.9931039707197E-04
(PID.TID 0000.0001) %MON dynstat_uvel_del2            =   7.8636500417408E-07
(PID.TID 0000.0001) %MON dynstat_vvel_max             =   1.4094243171960E-02
(PID.TID 0000.0001) %MON dynstat_vvel_min             =  -5.1107633638656E-03
(PID.TID 0000.0001) %MON dynstat_vvel_mean            =  -1.9797843037616E-07
(PID.TID 0000.0001) %MON dynstat_vvel_sd              =   2.6918960683128E-04
(PID.TID 0000.0001) %MON dynstat_vvel_del2            =   7.0411145697998E-07
(PID.TID 0000.0001) %MON dynstat_wvel_max             =   7.5864406947603E-04
(PID.TID 0000.0001) %MON dynstat_wvel_min             =  -8.0830522796795E-04
(PID.TID 0000.0001) %MON dynstat_wvel_mean            =   3.7539302521546E-10
(PID.TID 0000.0001) %MON dynstat_wvel_sd              =   1.3433853333164E-05
(PID.TID 0000.0001) %MON dynstat_wvel_del2            =   5.6637133536319E-08
(PID.TID 0000.0001) %MON dynstat_theta_max            =   1.2000000000000E+00
(PID.TID 0000.0001) %MON dynstat_theta_min            =  -1.0000000000000E+00
(PID.TID 0000.0001) %MON dynstat_theta_mean           =   5.6524822088802E-01
(PID.TID 0000.0001) %MON dynstat_theta_sd             =   8.4899014988784E-01
(PID.TID 0000.0001) %MON dynstat_theta_del2           =   1.9791248708364E-06
(PID.TID 0000.0001) %MON dynstat_salt_max             =   3.4700000000000E+01
(PID.TID 0000.0001) %MON dynstat_salt_min             =   3.4000000000000E+01
(PID.TID 0000.0001) %MON dynstat_salt_mean            =   3.4498013178292E+01
(PID.TID 0000.0001) %MON dynstat_salt_sd              =   2.7013167874462E-01
(PID.TID 0000.0001) %MON dynstat_salt_del2            =   7.8088704558449E-07
(PID.TID 0000.0001) %MON advcfl_uvel_max              =   1.8520642060787E-03
(PID.TID 0000.0001) %MON advcfl_vvel_max              =   1.4094243171960E-03
(PID.TID 0000.0001) %MON advcfl_wvel_max              =   4.0415261398397E-03
(PID.TID 0000.0001) %MON advcfl_W_hf_max              =   4.0415261398397E-03
(PID.TID 0000.0001) %MON pe_b_mean                    =  -6.8235169592216E-01
(PID.TID 0000.0001) %MON ke_max                       =   1.1515578056619E-04
(PID.TID 0000.0001) %MON ke_mean                      =   1.5854253823278E-07
(PID.TID 0000.0001) %MON ke_vol                       =   4.6182991828320E+12
(PID.TID 0000.0001) // =======================================================
(PID.TID 0000.0001) // End MONITOR dynamic field statistics
(PID.TID 0000.0001) // =======================================================
(PID.TID 0000.0001) // =======================================================
(PID.TID 0000.0001) // Begin OBCS MONITOR field statistics
(PID.TID 0000.0001) // =======================================================
(PID.TID 0000.0001) %MON obc_N_vVel_max               =  -2.2450729001919E-07
(PID.TID 0000.0001) %MON obc_N_vVel_min               =  -2.2450729001920E-07
(PID.TID 0000.0001) %MON obc_N_vVel_mean              =  -2.2450729001919E-07
(PID.TID 0000.0001) %MON obc_N_vVel_sd                =  -1.8932661725304E-29
(PID.TID 0000.0001) %MON obc_N_vVel_Int               =  -1.4817481141267E+01
(PID.TID 0000.0001) // =======================================================
(PID.TID 0000.0001) // End OBCS MONITOR field statistics
(PID.TID 0000.0001) // =======================================================
 cg2d: Sum(rhs),rhsMax =   3.01008051171854E+00  4.53046271254284E+02
(PID.TID 0000.0001)      cg2d_init_res =   2.39344306335885E-06
(PID.TID 0000.0001)      cg2d_iters(min,last) =      -1      74
(PID.TID 0000.0001)      cg2d_last_res =   7.13962853729802E-12
(PID.TID 0000.0001) // =======================================================
(PID.TID 0000.0001) // Begin MONITOR dynamic field statistics
(PID.TID 0000.0001) // =======================================================
(PID.TID 0000.0001) %MON time_tsnumber                =                   956
(PID.TID 0000.0001) %MON time_secondsf                =   9.5600000000000E+04
(PID.TID 0000.0001) %MON dynstat_eta_max              =   5.7981209588884E+00
(PID.TID 0000.0001) %MON dynstat_eta_min              =  -1.4173465938564E+01
(PID.TID 0000.0001) %MON dynstat_eta_mean             =  -2.5253810222394E+00
(PID.TID 0000.0001) %MON dynstat_eta_sd               =   4.9414556679298E+00
(PID.TID 0000.0001) %MON dynstat_eta_del2             =   1.9058390558417E-01
(PID.TID 0000.0001) %MON dynstat_uvel_max             =   4.2416649536730E-03
(PID.TID 0000.0001) %MON dynstat_uvel_min             =  -1.8565267214150E-02
(PID.TID 0000.0001) %MON dynstat_uvel_mean            =  -1.1909741301840E-09
(PID.TID 0000.0001) %MON dynstat_uvel_sd              =   5.0066655782278E-04
(PID.TID 0000.0001) %MON dynstat_uvel_del2            =   7.8825786119799E-07
(PID.TID 0000.0001) %MON dynstat_vvel_max             =   1.4127157946787E-02
(PID.TID 0000.0001) %MON dynstat_vvel_min             =  -5.1227265302156E-03
(PID.TID 0000.0001) %MON dynstat_vvel_mean            =  -1.8740399195689E-07
(PID.TID 0000.0001) %MON dynstat_vvel_sd              =   2.6976489265160E-04
(PID.TID 0000.0001) %MON dynstat_vvel_del2            =   7.0565922803029E-07
(PID.TID 0000.0001) %MON dynstat_wvel_max             =   7.6067489191735E-04
(PID.TID 0000.0001) %MON dynstat_wvel_min             =  -8.1090614414384E-04
(PID.TID 0000.0001) %MON dynstat_wvel_mean            =   3.7803440428848E-10
(PID.TID 0000.0001) %MON dynstat_wvel_sd              =   1.3440523029687E-05
(PID.TID 0000.0001) %MON dynstat_wvel_del2            =   5.6695215853777E-08
(PID.TID 0000.0001) %MON dynstat_theta_max            =   1.2000000000000E+00
(PID.TID 0000.0001) %MON dynstat_theta_min            =  -1.0000000000000E+00
(PID.TID 0000.0001) %MON dynstat_theta_mean           =   5.6524774187652E-01
(PID.TID 0000.0001) %MON dynstat_theta_sd             =   8.4898995163560E-01
(PID.TID 0000.0001) %MON dynstat_theta_del2           =   1.9835101388819E-06
(PID.TID 0000.0001) %MON dynstat_salt_max             =   3.4700000000000E+01
(PID.TID 0000.0001) %MON dynstat_salt_min             =   3.4000000000000E+01
(PID.TID 0000.0001) %MON dynstat_salt_mean            =   3.4498012987323E+01
(PID.TID 0000.0001) %MON dynstat_salt_sd              =   2.7013160497107E-01
(PID.TID 0000.0001) %MON dynstat_salt_del2            =   7.8262232142466E-07
(PID.TID 0000.0001) %MON advcfl_uvel_max              =   1.8565267214150E-03
(PID.TID 0000.0001) %MON advcfl_vvel_max              =   1.4127157946787E-03
(PID.TID 0000.0001) %MON advcfl_wvel_max              =   4.0545307207192E-03
(PID.TID 0000.0001) %MON advcfl_W_hf_max              =   4.0545307207192E-03
(PID.TID 0000.0001) %MON pe_b_mean                    =  -6.8235039620477E-01
(PID.TID 0000.0001) %MON ke_max                       =   1.1588961633589E-04
(PID.TID 0000.0001) %MON ke_mean                      =   1.5936287620397E-07
(PID.TID 0000.0001) %MON ke_vol                       =   4.6182992097876E+12
(PID.TID 0000.0001) // =======================================================
(PID.TID 0000.0001) // End MONITOR dynamic field statistics
(PID.TID 0000.0001) // =======================================================
(PID.TID 0000.0001) // =======================================================
(PID.TID 0000.0001) // Begin OBCS MONITOR field statistics
(PID.TID 0000.0001) // =======================================================
(PID.TID 0000.0001) %MON obc_N_vVel_max               =  -2.1450521297545E-07
(PID.TID 0000.0001) %MON obc_N_vVel_min               =  -2.1450521297546E-07
(PID.TID 0000.0001) %MON obc_N_vVel_mean              =  -2.1450521297545E-07
(PID.TID 0000.0001) %MON obc_N_vVel_sd                =   6.1892718115730E-14
(PID.TID 0000.0001) %MON obc_N_vVel_Int               =  -1.4157344056380E+01
(PID.TID 0000.0001) // =======================================================
(PID.TID 0000.0001) // End OBCS MONITOR field statistics
(PID.TID 0000.0001) // =======================================================
 cg2d: Sum(rhs),rhsMax =   3.01007513104062E+00  4.53046268098523E+02
(PID.TID 0000.0001)      cg2d_init_res =   2.39562792310631E-06
(PID.TID 0000.0001)      cg2d_iters(min,last) =      -1      74
(PID.TID 0000.0001)      cg2d_last_res =   7.15506567578310E-12
(PID.TID 0000.0001) // =======================================================
(PID.TID 0000.0001) // Begin MONITOR dynamic field statistics
(PID.TID 0000.0001) // =======================================================
(PID.TID 0000.0001) %MON time_tsnumber                =                   957
(PID.TID 0000.0001) %MON time_secondsf                =   9.5700000000000E+04
(PID.TID 0000.0001) %MON dynstat_eta_max              =   5.7981240168841E+00
(PID.TID 0000.0001) %MON dynstat_eta_min              =  -1.4173456790269E+01
(PID.TID 0000.0001) %MON dynstat_eta_mean             =  -2.5253764903965E+00
(PID.TID 0000.0001) %MON dynstat_eta_sd               =   4.9414543406342E+00
(PID.TID 0000.0001) %MON dynstat_eta_del2             =   1.9058391709962E-01
(PID.TID 0000.0001) %MON dynstat_uvel_max             =   4.2463310938317E-03
(PID.TID 0000.0001) %MON dynstat_uvel_min             =  -1.8609956920765E-02
(PID.TID 0000.0001) %MON dynstat_uvel_mean            =  -1.2217151309762E-09
(PID.TID 0000.0001) %MON dynstat_uvel_sd              =   5.0202582201033E-04
(PID.TID 0000.0001) %MON dynstat_uvel_del2            =   7.9015586110174E-07
(PID.TID 0000.0001) %MON dynstat_vvel_max             =   1.4160114959705E-02
(PID.TID 0000.0001) %MON dynstat_vvel_min             =  -5.1347115552360E-03
(PID.TID 0000.0001) %MON dynstat_vvel_mean            =  -1.7593869369229E-07
(PID.TID 0000.0001) %MON dynstat_vvel_sd              =   2.7034276629124E-04
(PID.TID 0000.0001) %MON dynstat_vvel_del2            =   7.0720996332749E-07
(PID.TID 0000.0001) %MON dynstat_wvel_max             =   7.6270946528023E-04
(PID.TID 0000.0001) %MON dynstat_wvel_min             =  -8.1351425569816E-04
(PID.TID 0000.0001) %MON dynstat_wvel_mean            =   3.7996342204531E-10
(PID.TID 0000.0001) %MON dynstat_wvel_sd              =   1.3452364558302E-05
(PID.TID 0000.0001) %MON dynstat_wvel_del2            =   5.6767962973216E-08
(PID.TID 0000.0001) %MON dynstat_theta_max            =   1.2000000000000E+00
(PID.TID 0000.0001) %MON dynstat_theta_min            =  -1.0000000000000E+00
(PID.TID 0000.0001) %MON dynstat_theta_mean           =   5.6524726190815E-01
(PID.TID 0000.0001) %MON dynstat_theta_sd             =   8.4898975294012E-01
(PID.TID 0000.0001) %MON dynstat_theta_del2           =   1.9878979764357E-06
(PID.TID 0000.0001) %MON dynstat_salt_max             =   3.4700000000000E+01
(PID.TID 0000.0001) %MON dynstat_salt_min             =   3.4000000000000E+01
(PID.TID 0000.0001) %MON dynstat_salt_mean            =   3.4498012795972E+01
(PID.TID 0000.0001) %MON dynstat_salt_sd              =   2.7013153102313E-01
(PID.TID 0000.0001) %MON dynstat_salt_del2            =   7.8435934538645E-07
(PID.TID 0000.0001) %MON advcfl_uvel_max              =   1.8609956920765E-03
(PID.TID 0000.0001) %MON advcfl_vvel_max              =   1.4160114959705E-03
(PID.TID 0000.0001) %MON advcfl_wvel_max              =   4.0675712784908E-03
(PID.TID 0000.0001) %MON advcfl_W_hf_max              =   4.0675712784908E-03
(PID.TID 0000.0001) %MON pe_b_mean                    =  -6.8234909642428E-01
(PID.TID 0000.0001) %MON ke_max                       =   1.1662752949682E-04
(PID.TID 0000.0001) %MON ke_mean                      =   1.6018757795845E-07
(PID.TID 0000.0001) %MON ke_vol                       =   4.6182992367279E+12
(PID.TID 0000.0001) // =======================================================
(PID.TID 0000.0001) // End MONITOR dynamic field statistics
(PID.TID 0000.0001) // =======================================================
(PID.TID 0000.0001) // =======================================================
(PID.TID 0000.0001) // Begin OBCS MONITOR field statistics
(PID.TID 0000.0001) // =======================================================
(PID.TID 0000.0001) %MON obc_N_vVel_max               =  -2.0359098161126E-07
(PID.TID 0000.0001) %MON obc_N_vVel_min               =  -2.0359098161126E-07
(PID.TID 0000.0001) %MON obc_N_vVel_mean              =  -2.0359098161126E-07
(PID.TID 0000.0001) %MON obc_N_vVel_sd                =   4.9991112687558E-14
(PID.TID 0000.0001) %MON obc_N_vVel_Int               =  -1.3437004786343E+01
(PID.TID 0000.0001) // =======================================================
(PID.TID 0000.0001) // End OBCS MONITOR field statistics
(PID.TID 0000.0001) // =======================================================
 cg2d: Sum(rhs),rhsMax =   3.01006975576080E+00  4.53046264937187E+02
(PID.TID 0000.0001)      cg2d_init_res =   2.39800664245374E-06
(PID.TID 0000.0001)      cg2d_iters(min,last) =      -1      74
(PID.TID 0000.0001)      cg2d_last_res =   7.17032129882093E-12
(PID.TID 0000.0001) // =======================================================
(PID.TID 0000.0001) // Begin MONITOR dynamic field statistics
(PID.TID 0000.0001) // =======================================================
(PID.TID 0000.0001) %MON time_tsnumber                =                   958
(PID.TID 0000.0001) %MON time_secondsf                =   9.5800000000000E+04
(PID.TID 0000.0001) %MON dynstat_eta_max              =   5.7981270536459E+00
(PID.TID 0000.0001) %MON dynstat_eta_min              =  -1.4173447640307E+01
(PID.TID 0000.0001) %MON dynstat_eta_mean             =  -2.5253719630515E+00
(PID.TID 0000.0001) %MON dynstat_eta_sd               =   4.9414530159976E+00
(PID.TID 0000.0001) %MON dynstat_eta_del2             =   1.9058392865813E-01
(PID.TID 0000.0001) %MON dynstat_uvel_max             =   4.2509908670709E-03
(PID.TID 0000.0001) %MON dynstat_uvel_min             =  -1.8655270329664E-02
(PID.TID 0000.0001) %MON dynstat_uvel_mean            =  -1.2500715192480E-09
(PID.TID 0000.0001) %MON dynstat_uvel_sd              =   5.0338818823308E-04
(PID.TID 0000.0001) %MON dynstat_uvel_del2            =   7.9205902091256E-07
(PID.TID 0000.0001) %MON dynstat_vvel_max             =   1.4193114131393E-02
(PID.TID 0000.0001) %MON dynstat_vvel_min             =  -5.1467184762908E-03
(PID.TID 0000.0001) %MON dynstat_vvel_mean            =  -1.6364450089171E-07
(PID.TID 0000.0001) %MON dynstat_vvel_sd              =   2.7092345311211E-04
(PID.TID 0000.0001) %MON dynstat_vvel_del2            =   7.0876425012260E-07
(PID.TID 0000.0001) %MON dynstat_wvel_max             =   7.6474779082327E-04
(PID.TID 0000.0001) %MON dynstat_wvel_min             =  -8.1612957516374E-04
(PID.TID 0000.0001) %MON dynstat_wvel_mean            =   3.8115442445197E-10
(PID.TID 0000.0001) %MON dynstat_wvel_sd              =   1.3470224998235E-05
(PID.TID 0000.0001) %MON dynstat_wvel_del2            =   5.6861757189907E-08
(PID.TID 0000.0001) %MON dynstat_theta_max            =   1.2000000000000E+00
(PID.TID 0000.0001) %MON dynstat_theta_min            =  -1.0000000000000E+00
(PID.TID 0000.0001) %MON dynstat_theta_mean           =   5.6524678098309E-01
(PID.TID 0000.0001) %MON dynstat_theta_sd             =   8.4898955379727E-01
(PID.TID 0000.0001) %MON dynstat_theta_del2           =   1.9922877541054E-06
(PID.TID 0000.0001) %MON dynstat_salt_max             =   3.4700000000000E+01
(PID.TID 0000.0001) %MON dynstat_salt_min             =   3.4000000000000E+01
(PID.TID 0000.0001) %MON dynstat_salt_mean            =   3.4498012604238E+01
(PID.TID 0000.0001) %MON dynstat_salt_sd              =   2.7013145689986E-01
(PID.TID 0000.0001) %MON dynstat_salt_del2            =   7.8609763261340E-07
(PID.TID 0000.0001) %MON advcfl_uvel_max              =   1.8655270329664E-03
(PID.TID 0000.0001) %MON advcfl_vvel_max              =   1.4193114131393E-03
(PID.TID 0000.0001) %MON advcfl_wvel_max              =   4.0806478758187E-03
(PID.TID 0000.0001) %MON advcfl_W_hf_max              =   4.0806478758187E-03
(PID.TID 0000.0001) %MON pe_b_mean                    =  -6.8234779674983E-01
(PID.TID 0000.0001) %MON ke_max                       =   1.1736953850620E-04
(PID.TID 0000.0001) %MON ke_mean                      =   1.6101672080169E-07
(PID.TID 0000.0001) %MON ke_vol                       =   4.6182992636470E+12
(PID.TID 0000.0001) // =======================================================
(PID.TID 0000.0001) // End MONITOR dynamic field statistics
(PID.TID 0000.0001) // =======================================================
(PID.TID 0000.0001) // =======================================================
(PID.TID 0000.0001) // Begin OBCS MONITOR field statistics
(PID.TID 0000.0001) // =======================================================
(PID.TID 0000.0001) %MON obc_N_vVel_max               =  -1.9182217066592E-07
(PID.TID 0000.0001) %MON obc_N_vVel_min               =  -1.9182217066593E-07
(PID.TID 0000.0001) %MON obc_N_vVel_mean              =  -1.9182217066592E-07
(PID.TID 0000.0001) %MON obc_N_vVel_sd                =   3.9481503881143E-14
(PID.TID 0000.0001) %MON obc_N_vVel_Int               =  -1.2660263263951E+01
(PID.TID 0000.0001) // =======================================================
(PID.TID 0000.0001) // End OBCS MONITOR field statistics
(PID.TID 0000.0001) // =======================================================
 cg2d: Sum(rhs),rhsMax =   3.01006438706404E+00  4.53046261746665E+02
(PID.TID 0000.0001)      cg2d_init_res =   2.40065958231347E-06
(PID.TID 0000.0001)      cg2d_iters(min,last) =      -1      74
(PID.TID 0000.0001)      cg2d_last_res =   7.18535072697728E-12
(PID.TID 0000.0001) // =======================================================
(PID.TID 0000.0001) // Begin MONITOR dynamic field statistics
(PID.TID 0000.0001) // =======================================================
(PID.TID 0000.0001) %MON time_tsnumber                =                   959
(PID.TID 0000.0001) %MON time_secondsf                =   9.5900000000000E+04
(PID.TID 0000.0001) %MON dynstat_eta_max              =   5.7981300677276E+00
(PID.TID 0000.0001) %MON dynstat_eta_min              =  -1.4173438490119E+01
(PID.TID 0000.0001) %MON dynstat_eta_mean             =  -2.5253674410669E+00
(PID.TID 0000.0001) %MON dynstat_eta_sd               =   4.9414516942234E+00
(PID.TID 0000.0001) %MON dynstat_eta_del2             =   1.9058394025945E-01
(PID.TID 0000.0001) %MON dynstat_uvel_max             =   4.2556442398354E-03
(PID.TID 0000.0001) %MON dynstat_uvel_min             =  -1.8703306258494E-02
(PID.TID 0000.0001) %MON dynstat_uvel_mean            =  -1.2757718787459E-09
(PID.TID 0000.0001) %MON dynstat_uvel_sd              =   5.0475365554279E-04
(PID.TID 0000.0001) %MON dynstat_uvel_del2            =   7.9396735801208E-07
(PID.TID 0000.0001) %MON dynstat_vvel_max             =   1.4226155381243E-02
(PID.TID 0000.0001) %MON dynstat_vvel_min             =  -5.1587473311052E-03
(PID.TID 0000.0001) %MON dynstat_vvel_mean            =  -1.5059023634504E-07
(PID.TID 0000.0001) %MON dynstat_vvel_sd              =   2.7150709273827E-04
(PID.TID 0000.0001) %MON dynstat_vvel_del2            =   7.1032222969590E-07
(PID.TID 0000.0001) %MON dynstat_wvel_max             =   7.6678986980846E-04
(PID.TID 0000.0001) %MON dynstat_wvel_min             =  -8.1875211496652E-04
(PID.TID 0000.0001) %MON dynstat_wvel_mean            =   3.8158628249080E-10
(PID.TID 0000.0001) %MON dynstat_wvel_sd              =   1.3494615964629E-05
(PID.TID 0000.0001) %MON dynstat_wvel_del2            =   5.6980637251827E-08
(PID.TID 0000.0001) %MON dynstat_theta_max            =   1.2000000000000E+00
(PID.TID 0000.0001) %MON dynstat_theta_min            =  -1.0000000000000E+00
(PID.TID 0000.0001) %MON dynstat_theta_mean           =   5.6524629910193E-01
(PID.TID 0000.0001) %MON dynstat_theta_sd             =   8.4898935420154E-01
(PID.TID 0000.0001) %MON dynstat_theta_del2           =   1.9966775659111E-06
(PID.TID 0000.0001) %MON dynstat_salt_max             =   3.4700000000000E+01
(PID.TID 0000.0001) %MON dynstat_salt_min             =   3.4000000000000E+01
(PID.TID 0000.0001) %MON dynstat_salt_mean            =   3.4498012412122E+01
(PID.TID 0000.0001) %MON dynstat_salt_sd              =   2.7013138259929E-01
(PID.TID 0000.0001) %MON dynstat_salt_del2            =   7.8783692455255E-07
(PID.TID 0000.0001) %MON advcfl_uvel_max              =   1.8703306258494E-03
(PID.TID 0000.0001) %MON advcfl_vvel_max              =   1.4226155381243E-03
(PID.TID 0000.0001) %MON advcfl_wvel_max              =   4.0937605748326E-03
(PID.TID 0000.0001) %MON advcfl_W_hf_max              =   4.0937605748326E-03
(PID.TID 0000.0001) %MON pe_b_mean                    =  -6.8234649733556E-01
(PID.TID 0000.0001) %MON ke_max                       =   1.1811566188674E-04
(PID.TID 0000.0001) %MON ke_mean                      =   1.6185035955292E-07
(PID.TID 0000.0001) %MON ke_vol                       =   4.6182992905395E+12
(PID.TID 0000.0001) // =======================================================
(PID.TID 0000.0001) // End MONITOR dynamic field statistics
(PID.TID 0000.0001) // =======================================================
(PID.TID 0000.0001) // =======================================================
(PID.TID 0000.0001) // Begin OBCS MONITOR field statistics
(PID.TID 0000.0001) // =======================================================
(PID.TID 0000.0001) %MON obc_N_vVel_max               =  -1.7926329844057E-07
(PID.TID 0000.0001) %MON obc_N_vVel_min               =  -1.7926329844058E-07
(PID.TID 0000.0001) %MON obc_N_vVel_mean              =  -1.7926329844058E-07
(PID.TID 0000.0001) %MON obc_N_vVel_sd                =  -7.6992824349571E-28
(PID.TID 0000.0001) %MON obc_N_vVel_Int               =  -1.1831377697078E+01
(PID.TID 0000.0001) // =======================================================
(PID.TID 0000.0001) // End OBCS MONITOR field statistics
(PID.TID 0000.0001) // =======================================================
 cg2d: Sum(rhs),rhsMax =   3.01005902604652E+00  4.53046258502514E+02
(PID.TID 0000.0001)      cg2d_init_res =   2.40367438474647E-06
(PID.TID 0000.0001)      cg2d_iters(min,last) =      -1      74
(PID.TID 0000.0001)      cg2d_last_res =   7.20016736156382E-12
(PID.TID 0000.0001) // =======================================================
(PID.TID 0000.0001) // Begin MONITOR dynamic field statistics
(PID.TID 0000.0001) // =======================================================
(PID.TID 0000.0001) %MON time_tsnumber                =                   960
(PID.TID 0000.0001) %MON time_secondsf                =   9.6000000000000E+04
(PID.TID 0000.0001) %MON dynstat_eta_max              =   5.7981330578029E+00
(PID.TID 0000.0001) %MON dynstat_eta_min              =  -1.4173429341013E+01
(PID.TID 0000.0001) %MON dynstat_eta_mean             =  -2.5253629252261E+00
(PID.TID 0000.0001) %MON dynstat_eta_sd               =   4.9414503754863E+00
(PID.TID 0000.0001) %MON dynstat_eta_del2             =   1.9058395190343E-01
(PID.TID 0000.0001) %MON dynstat_uvel_max             =   4.2602911783973E-03
(PID.TID 0000.0001) %MON dynstat_uvel_min             =  -1.8751419609998E-02
(PID.TID 0000.0001) %MON dynstat_uvel_mean            =  -1.2985598368488E-09
(PID.TID 0000.0001) %MON dynstat_uvel_sd              =   5.0612222344998E-04
(PID.TID 0000.0001) %MON dynstat_uvel_del2            =   7.9588088922252E-07
(PID.TID 0000.0001) %MON dynstat_vvel_max             =   1.4259238627429E-02
(PID.TID 0000.0001) %MON dynstat_vvel_min             =  -5.1707981578710E-03
(PID.TID 0000.0001) %MON dynstat_vvel_mean            =  -1.3685119953611E-07
(PID.TID 0000.0001) %MON dynstat_vvel_sd              =   2.7209373205083E-04
(PID.TID 0000.0001) %MON dynstat_vvel_del2            =   7.1188353127341E-07
(PID.TID 0000.0001) %MON dynstat_wvel_max             =   7.6883570344234E-04
(PID.TID 0000.0001) %MON dynstat_wvel_min             =  -8.2138188736736E-04
(PID.TID 0000.0001) %MON dynstat_wvel_mean            =   3.8124283447815E-10
(PID.TID 0000.0001) %MON dynstat_wvel_sd              =   1.3525666222937E-05
(PID.TID 0000.0001) %MON dynstat_wvel_del2            =   5.7125865139803E-08
(PID.TID 0000.0001) %MON dynstat_theta_max            =   1.2000000000000E+00
(PID.TID 0000.0001) %MON dynstat_theta_min            =  -1.0000000000000E+00
(PID.TID 0000.0001) %MON dynstat_theta_mean           =   5.6524581626548E-01
(PID.TID 0000.0001) %MON dynstat_theta_sd             =   8.4898915414560E-01
(PID.TID 0000.0001) %MON dynstat_theta_del2           =   2.0010672156902E-06
(PID.TID 0000.0001) %MON dynstat_salt_max             =   3.4700000000000E+01
(PID.TID 0000.0001) %MON dynstat_salt_min             =   3.4000000000000E+01
(PID.TID 0000.0001) %MON dynstat_salt_mean            =   3.4498012219623E+01
(PID.TID 0000.0001) %MON dynstat_salt_sd              =   2.7013130811933E-01
(PID.TID 0000.0001) %MON dynstat_salt_del2            =   7.8957715296313E-07
(PID.TID 0000.0001) %MON advcfl_uvel_max              =   1.8751419609998E-03
(PID.TID 0000.0001) %MON advcfl_vvel_max              =   1.4259238627429E-03
(PID.TID 0000.0001) %MON advcfl_wvel_max              =   4.1069094368368E-03
(PID.TID 0000.0001) %MON advcfl_W_hf_max              =   4.1069094368368E-03
(PID.TID 0000.0001) %MON pe_b_mean                    =  -6.8234519831898E-01
(PID.TID 0000.0001) %MON ke_max                       =   1.1886591822502E-04
(PID.TID 0000.0001) %MON ke_mean                      =   1.6268852439886E-07
(PID.TID 0000.0001) %MON ke_vol                       =   4.6182993174001E+12
(PID.TID 0000.0001) // =======================================================
(PID.TID 0000.0001) // End MONITOR dynamic field statistics
(PID.TID 0000.0001) // =======================================================
(PID.TID 0000.0001) // =======================================================
(PID.TID 0000.0001) // Begin OBCS MONITOR field statistics
(PID.TID 0000.0001) // =======================================================
(PID.TID 0000.0001) %MON obc_N_vVel_max               =  -1.6598548472307E-07
(PID.TID 0000.0001) %MON obc_N_vVel_min               =  -1.6598548472307E-07
(PID.TID 0000.0001) %MON obc_N_vVel_mean              =  -1.6598548472307E-07
(PID.TID 0000.0001) %MON obc_N_vVel_sd                =   2.2955589399700E-14
(PID.TID 0000.0001) %MON obc_N_vVel_Int               =  -1.0955041991723E+01
(PID.TID 0000.0001) // =======================================================
(PID.TID 0000.0001) // End OBCS MONITOR field statistics
(PID.TID 0000.0001) // =======================================================
 cg2d: Sum(rhs),rhsMax =   3.01005367371183E+00  4.53046255178968E+02
(PID.TID 0000.0001)      cg2d_init_res =   2.40706743172292E-06
(PID.TID 0000.0001)      cg2d_iters(min,last) =      -1      74
(PID.TID 0000.0001)      cg2d_last_res =   7.21481097862008E-12
(PID.TID 0000.0001) // =======================================================
(PID.TID 0000.0001) // Begin MONITOR dynamic field statistics
(PID.TID 0000.0001) // =======================================================
(PID.TID 0000.0001) %MON time_tsnumber                =                   961
(PID.TID 0000.0001) %MON time_secondsf                =   9.6100000000000E+04
(PID.TID 0000.0001) %MON dynstat_eta_max              =   5.7981360226967E+00
(PID.TID 0000.0001) %MON dynstat_eta_min              =  -1.4173420194127E+01
(PID.TID 0000.0001) %MON dynstat_eta_mean             =  -2.5253584162275E+00
(PID.TID 0000.0001) %MON dynstat_eta_sd               =   4.9414490599270E+00
(PID.TID 0000.0001) %MON dynstat_eta_del2             =   1.9058396358979E-01
(PID.TID 0000.0001) %MON dynstat_uvel_max             =   4.2649316487928E-03
(PID.TID 0000.0001) %MON dynstat_uvel_min             =  -1.8799610273298E-02
(PID.TID 0000.0001) %MON dynstat_uvel_mean            =  -1.3181896271632E-09
(PID.TID 0000.0001) %MON dynstat_uvel_sd              =   5.0749389193006E-04
(PID.TID 0000.0001) %MON dynstat_uvel_del2            =   7.9779963134145E-07
(PID.TID 0000.0001) %MON dynstat_vvel_max             =   1.4292363786965E-02
(PID.TID 0000.0001) %MON dynstat_vvel_min             =  -5.1828709950676E-03
(PID.TID 0000.0001) %MON dynstat_vvel_mean            =  -1.2250870149819E-07
(PID.TID 0000.0001) %MON dynstat_vvel_sd              =   2.7268332367194E-04
(PID.TID 0000.0001) %MON dynstat_vvel_del2            =   7.1344726675722E-07
(PID.TID 0000.0001) %MON dynstat_wvel_max             =   7.7088529293419E-04
(PID.TID 0000.0001) %MON dynstat_wvel_min             =  -8.2401890451669E-04
(PID.TID 0000.0001) %MON dynstat_wvel_mean            =   3.8011296450281E-10
(PID.TID 0000.0001) %MON dynstat_wvel_sd              =   1.3563107604206E-05
(PID.TID 0000.0001) %MON dynstat_wvel_del2            =   5.7295798892852E-08
(PID.TID 0000.0001) %MON dynstat_theta_max            =   1.2000000000000E+00
(PID.TID 0000.0001) %MON dynstat_theta_min            =  -1.0000000000000E+00
(PID.TID 0000.0001) %MON dynstat_theta_mean           =   5.6524533247474E-01
(PID.TID 0000.0001) %MON dynstat_theta_sd             =   8.4898895362014E-01
(PID.TID 0000.0001) %MON dynstat_theta_del2           =   2.0054572422446E-06
(PID.TID 0000.0001) %MON dynstat_salt_max             =   3.4700000000000E+01
(PID.TID 0000.0001) %MON dynstat_salt_min             =   3.4000000000000E+01
(PID.TID 0000.0001) %MON dynstat_salt_mean            =   3.4498012026742E+01
(PID.TID 0000.0001) %MON dynstat_salt_sd              =   2.7013123345673E-01
(PID.TID 0000.0001) %MON dynstat_salt_del2            =   7.9131846287697E-07
(PID.TID 0000.0001) %MON advcfl_uvel_max              =   1.8799610273298E-03
(PID.TID 0000.0001) %MON advcfl_vvel_max              =   1.4292363786965E-03
(PID.TID 0000.0001) %MON advcfl_wvel_max              =   4.1200945225834E-03
(PID.TID 0000.0001) %MON advcfl_W_hf_max              =   4.1200945225834E-03
(PID.TID 0000.0001) %MON pe_b_mean                    =  -6.8234389981976E-01
(PID.TID 0000.0001) %MON ke_max                       =   1.1962032617047E-04
(PID.TID 0000.0001) %MON ke_mean                      =   1.6353122021651E-07
(PID.TID 0000.0001) %MON ke_vol                       =   4.6182993442242E+12
(PID.TID 0000.0001) // =======================================================
(PID.TID 0000.0001) // End MONITOR dynamic field statistics
(PID.TID 0000.0001) // =======================================================
(PID.TID 0000.0001) // =======================================================
(PID.TID 0000.0001) // Begin OBCS MONITOR field statistics
(PID.TID 0000.0001) // =======================================================
(PID.TID 0000.0001) %MON obc_N_vVel_max               =  -1.5206599495656E-07
(PID.TID 0000.0001) %MON obc_N_vVel_min               =  -1.5206599495656E-07
(PID.TID 0000.0001) %MON obc_N_vVel_mean              =  -1.5206599495656E-07
(PID.TID 0000.0001) %MON obc_N_vVel_sd                =   2.1610313646286E-14
(PID.TID 0000.0001) %MON obc_N_vVel_Int               =  -1.0036355667133E+01
(PID.TID 0000.0001) // =======================================================
(PID.TID 0000.0001) // End OBCS MONITOR field statistics
(PID.TID 0000.0001) // =======================================================
 cg2d: Sum(rhs),rhsMax =   3.01004833095934E+00  4.53046251749427E+02
(PID.TID 0000.0001)      cg2d_init_res =   2.41083635023597E-06
(PID.TID 0000.0001)      cg2d_iters(min,last) =      -1      74
(PID.TID 0000.0001)      cg2d_last_res =   7.22932687324306E-12
(PID.TID 0000.0001) // =======================================================
(PID.TID 0000.0001) // Begin MONITOR dynamic field statistics
(PID.TID 0000.0001) // =======================================================
(PID.TID 0000.0001) %MON time_tsnumber                =                   962
(PID.TID 0000.0001) %MON time_secondsf                =   9.6200000000000E+04
(PID.TID 0000.0001) %MON dynstat_eta_max              =   5.7981389613922E+00
(PID.TID 0000.0001) %MON dynstat_eta_min              =  -1.4173411050448E+01
(PID.TID 0000.0001) %MON dynstat_eta_mean             =  -2.5253539146773E+00
(PID.TID 0000.0001) %MON dynstat_eta_sd               =   4.9414477476508E+00
(PID.TID 0000.0001) %MON dynstat_eta_del2             =   1.9058397531814E-01
(PID.TID 0000.0001) %MON dynstat_uvel_max             =   4.2695656169602E-03
(PID.TID 0000.0001) %MON dynstat_uvel_min             =  -1.8847878136327E-02
(PID.TID 0000.0001) %MON dynstat_uvel_mean            =  -1.3344309483460E-09
(PID.TID 0000.0001) %MON dynstat_uvel_sd              =   5.0886866141462E-04
(PID.TID 0000.0001) %MON dynstat_uvel_del2            =   7.9972360103214E-07
(PID.TID 0000.0001) %MON dynstat_vvel_max             =   1.4325530775733E-02
(PID.TID 0000.0001) %MON dynstat_vvel_min             =  -5.1949658813646E-03
(PID.TID 0000.0001) %MON dynstat_vvel_mean            =  -1.0764954955849E-07
(PID.TID 0000.0001) %MON dynstat_vvel_sd              =   2.7327572990919E-04
(PID.TID 0000.0001) %MON dynstat_vvel_del2            =   7.1501208706110E-07
(PID.TID 0000.0001) %MON dynstat_wvel_max             =   7.7293863941849E-04
(PID.TID 0000.0001) %MON dynstat_wvel_min             =  -8.2666317847868E-04
(PID.TID 0000.0001) %MON dynstat_wvel_mean            =   3.7819094453431E-10
(PID.TID 0000.0001) %MON dynstat_wvel_sd              =   1.3606295250754E-05
(PID.TID 0000.0001) %MON dynstat_wvel_del2            =   5.7486081215162E-08
(PID.TID 0000.0001) %MON dynstat_theta_max            =   1.2000000000000E+00
(PID.TID 0000.0001) %MON dynstat_theta_min            =  -1.0000000000000E+00
(PID.TID 0000.0001) %MON dynstat_theta_mean           =   5.6524484773082E-01
(PID.TID 0000.0001) %MON dynstat_theta_sd             =   8.4898875261370E-01
(PID.TID 0000.0001) %MON dynstat_theta_del2           =   2.0098488552528E-06
(PID.TID 0000.0001) %MON dynstat_salt_max             =   3.4700000000000E+01
(PID.TID 0000.0001) %MON dynstat_salt_min             =   3.4000000000000E+01
(PID.TID 0000.0001) %MON dynstat_salt_mean            =   3.4498011833479E+01
(PID.TID 0000.0001) %MON dynstat_salt_sd              =   2.7013115860811E-01
(PID.TID 0000.0001) %MON dynstat_salt_del2            =   7.9306121195656E-07
(PID.TID 0000.0001) %MON advcfl_uvel_max              =   1.8847878136327E-03
(PID.TID 0000.0001) %MON advcfl_vvel_max              =   1.4325530775733E-03
(PID.TID 0000.0001) %MON advcfl_wvel_max              =   4.1333158923934E-03
(PID.TID 0000.0001) %MON advcfl_W_hf_max              =   4.1333158923934E-03
(PID.TID 0000.0001) %MON pe_b_mean                    =  -6.8234260193842E-01
(PID.TID 0000.0001) %MON ke_max                       =   1.2037890443769E-04
(PID.TID 0000.0001) %MON ke_mean                      =   1.6437842737054E-07
(PID.TID 0000.0001) %MON ke_vol                       =   4.6182993710076E+12
(PID.TID 0000.0001) // =======================================================
(PID.TID 0000.0001) // End MONITOR dynamic field statistics
(PID.TID 0000.0001) // =======================================================
(PID.TID 0000.0001) // =======================================================
(PID.TID 0000.0001) // Begin OBCS MONITOR field statistics
(PID.TID 0000.0001) // =======================================================
(PID.TID 0000.0001) %MON obc_N_vVel_max               =  -1.3758781095616E-07
(PID.TID 0000.0001) %MON obc_N_vVel_min               =  -1.3758781095616E-07
(PID.TID 0000.0001) %MON obc_N_vVel_mean              =  -1.3758781095616E-07
(PID.TID 0000.0001) %MON obc_N_vVel_sd                =   2.6347629809804E-14
(PID.TID 0000.0001) %MON obc_N_vVel_Int               =  -9.0807955231066E+00
(PID.TID 0000.0001) // =======================================================
(PID.TID 0000.0001) // End OBCS MONITOR field statistics
(PID.TID 0000.0001) // =======================================================
 cg2d: Sum(rhs),rhsMax =   3.01004299857596E+00  4.53046248186476E+02
(PID.TID 0000.0001)      cg2d_init_res =   2.41494674513284E-06
(PID.TID 0000.0001)      cg2d_iters(min,last) =      -1      74
(PID.TID 0000.0001)      cg2d_last_res =   7.24379393585539E-12
(PID.TID 0000.0001) // =======================================================
(PID.TID 0000.0001) // Begin MONITOR dynamic field statistics
(PID.TID 0000.0001) // =======================================================
(PID.TID 0000.0001) %MON time_tsnumber                =                   963
(PID.TID 0000.0001) %MON time_secondsf                =   9.6300000000000E+04
(PID.TID 0000.0001) %MON dynstat_eta_max              =   5.7981418730358E+00
(PID.TID 0000.0001) %MON dynstat_eta_min              =  -1.4173401910764E+01
(PID.TID 0000.0001) %MON dynstat_eta_mean             =  -2.5253494210830E+00
(PID.TID 0000.0001) %MON dynstat_eta_sd               =   4.9414464387256E+00
(PID.TID 0000.0001) %MON dynstat_eta_del2             =   1.9058398708798E-01
(PID.TID 0000.0001) %MON dynstat_uvel_max             =   4.2741930491346E-03
(PID.TID 0000.0001) %MON dynstat_uvel_min             =  -1.8896223086305E-02
(PID.TID 0000.0001) %MON dynstat_uvel_mean            =  -1.3470685033225E-09
(PID.TID 0000.0001) %MON dynstat_uvel_sd              =   5.1024653276859E-04
(PID.TID 0000.0001) %MON dynstat_uvel_del2            =   8.0165281459006E-07
(PID.TID 0000.0001) %MON dynstat_vvel_max             =   1.4358739508584E-02
(PID.TID 0000.0001) %MON dynstat_vvel_min             =  -5.2070828555912E-03
(PID.TID 0000.0001) %MON dynstat_vvel_mean            =  -9.2365488428784E-08
(PID.TID 0000.0001) %MON dynstat_vvel_sd              =   2.7387073187156E-04
(PID.TID 0000.0001) %MON dynstat_vvel_del2            =   7.1657629422077E-07
(PID.TID 0000.0001) %MON dynstat_wvel_max             =   7.7499574404498E-04
(PID.TID 0000.0001) %MON dynstat_wvel_min             =  -8.2931472112678E-04
(PID.TID 0000.0001) %MON dynstat_wvel_mean            =   3.7547673438990E-10
(PID.TID 0000.0001) %MON dynstat_wvel_sd              =   1.3654259474083E-05
(PID.TID 0000.0001) %MON dynstat_wvel_del2            =   5.7690116027493E-08
(PID.TID 0000.0001) %MON dynstat_theta_max            =   1.2000000000000E+00
(PID.TID 0000.0001) %MON dynstat_theta_min            =  -1.0000000000000E+00
(PID.TID 0000.0001) %MON dynstat_theta_mean           =   5.6524436203469E-01
(PID.TID 0000.0001) %MON dynstat_theta_sd             =   8.4898855111999E-01
(PID.TID 0000.0001) %MON dynstat_theta_del2           =   2.0142437537861E-06
(PID.TID 0000.0001) %MON dynstat_salt_max             =   3.4700000000000E+01
(PID.TID 0000.0001) %MON dynstat_salt_min             =   3.4000000000000E+01
(PID.TID 0000.0001) %MON dynstat_salt_mean            =   3.4498011639834E+01
(PID.TID 0000.0001) %MON dynstat_salt_sd              =   2.7013108357127E-01
(PID.TID 0000.0001) %MON dynstat_salt_del2            =   7.9480573678773E-07
(PID.TID 0000.0001) %MON advcfl_uvel_max              =   1.8896223086305E-03
(PID.TID 0000.0001) %MON advcfl_vvel_max              =   1.4358739508584E-03
(PID.TID 0000.0001) %MON advcfl_wvel_max              =   4.1465736056339E-03
(PID.TID 0000.0001) %MON advcfl_W_hf_max              =   4.1465736056339E-03
(PID.TID 0000.0001) %MON pe_b_mean                    =  -6.8234130475498E-01
(PID.TID 0000.0001) %MON ke_max                       =   1.2114167180790E-04
(PID.TID 0000.0001) %MON ke_mean                      =   1.6523010393049E-07
(PID.TID 0000.0001) %MON ke_vol                       =   4.6182993977468E+12
(PID.TID 0000.0001) // =======================================================
(PID.TID 0000.0001) // End MONITOR dynamic field statistics
(PID.TID 0000.0001) // =======================================================
(PID.TID 0000.0001) // =======================================================
(PID.TID 0000.0001) // Begin OBCS MONITOR field statistics
(PID.TID 0000.0001) // =======================================================
(PID.TID 0000.0001) %MON obc_N_vVel_max               =  -1.2263910546224E-07
(PID.TID 0000.0001) %MON obc_N_vVel_min               =  -1.2263910546224E-07
(PID.TID 0000.0001) %MON obc_N_vVel_mean              =  -1.2263910546224E-07
(PID.TID 0000.0001) %MON obc_N_vVel_sd                =  -5.2064819744587E-28
(PID.TID 0000.0001) %MON obc_N_vVel_Int               =  -8.0941809605079E+00
(PID.TID 0000.0001) // =======================================================
(PID.TID 0000.0001) // End OBCS MONITOR field statistics
(PID.TID 0000.0001) // =======================================================
 cg2d: Sum(rhs),rhsMax =   3.01003767722885E+00  4.53046244462063E+02
(PID.TID 0000.0001)      cg2d_init_res =   2.41933482737491E-06
(PID.TID 0000.0001)      cg2d_iters(min,last) =      -1      74
(PID.TID 0000.0001)      cg2d_last_res =   7.25820927645345E-12
(PID.TID 0000.0001) // =======================================================
(PID.TID 0000.0001) // Begin MONITOR dynamic field statistics
(PID.TID 0000.0001) // =======================================================
(PID.TID 0000.0001) %MON time_tsnumber                =                   964
(PID.TID 0000.0001) %MON time_secondsf                =   9.6400000000000E+04
(PID.TID 0000.0001) %MON dynstat_eta_max              =   5.7981447569488E+00
(PID.TID 0000.0001) %MON dynstat_eta_min              =  -1.4173392775707E+01
(PID.TID 0000.0001) %MON dynstat_eta_mean             =  -2.5253449358479E+00
(PID.TID 0000.0001) %MON dynstat_eta_sd               =   4.9414451331811E+00
(PID.TID 0000.0001) %MON dynstat_eta_del2             =   1.9058399889871E-01
(PID.TID 0000.0001) %MON dynstat_uvel_max             =   4.2788139124283E-03
(PID.TID 0000.0001) %MON dynstat_uvel_min             =  -1.8944645009570E-02
(PID.TID 0000.0001) %MON dynstat_uvel_mean            =  -1.3559064271245E-09
(PID.TID 0000.0001) %MON dynstat_uvel_sd              =   5.1162750726864E-04
(PID.TID 0000.0001) %MON dynstat_uvel_del2            =   8.0358728788939E-07
(PID.TID 0000.0001) %MON dynstat_vvel_max             =   1.4391989899472E-02
(PID.TID 0000.0001) %MON dynstat_vvel_min             =  -5.2192219566978E-03
(PID.TID 0000.0001) %MON dynstat_vvel_mean            =  -7.6752578225297E-08
(PID.TID 0000.0001) %MON dynstat_vvel_sd              =   2.7446804298640E-04
(PID.TID 0000.0001) %MON dynstat_vvel_del2            =   7.1813799672652E-07
(PID.TID 0000.0001) %MON dynstat_wvel_max             =   7.7705660790785E-04
(PID.TID 0000.0001) %MON dynstat_wvel_min             =  -8.3197354427931E-04
(PID.TID 0000.0001) %MON dynstat_wvel_mean            =   3.7197652110550E-10
(PID.TID 0000.0001) %MON dynstat_wvel_sd              =   1.3705783130529E-05
(PID.TID 0000.0001) %MON dynstat_wvel_del2            =   5.7899770921873E-08
(PID.TID 0000.0001) %MON dynstat_theta_max            =   1.2000000000000E+00
(PID.TID 0000.0001) %MON dynstat_theta_min            =  -1.0000000000000E+00
(PID.TID 0000.0001) %MON dynstat_theta_mean           =   5.6524387538718E-01
(PID.TID 0000.0001) %MON dynstat_theta_sd             =   8.4898834913826E-01
(PID.TID 0000.0001) %MON dynstat_theta_del2           =   2.0186439439152E-06
(PID.TID 0000.0001) %MON dynstat_salt_max             =   3.4700000000000E+01
(PID.TID 0000.0001) %MON dynstat_salt_min             =   3.4000000000000E+01
(PID.TID 0000.0001) %MON dynstat_salt_mean            =   3.4498011445808E+01
(PID.TID 0000.0001) %MON dynstat_salt_sd              =   2.7013100834585E-01
(PID.TID 0000.0001) %MON dynstat_salt_del2            =   7.9655254249575E-07
(PID.TID 0000.0001) %MON advcfl_uvel_max              =   1.8944645009570E-03
(PID.TID 0000.0001) %MON advcfl_vvel_max              =   1.4391989899472E-03
(PID.TID 0000.0001) %MON advcfl_wvel_max              =   4.1598677213965E-03
(PID.TID 0000.0001) %MON advcfl_W_hf_max              =   4.1598677213965E-03
(PID.TID 0000.0001) %MON pe_b_mean                    =  -6.8234000832833E-01
(PID.TID 0000.0001) %MON ke_max                       =   1.2190864713012E-04
(PID.TID 0000.0001) %MON ke_mean                      =   1.6608618912553E-07
(PID.TID 0000.0001) %MON ke_vol                       =   4.6182994244388E+12
(PID.TID 0000.0001) // =======================================================
(PID.TID 0000.0001) // End MONITOR dynamic field statistics
(PID.TID 0000.0001) // =======================================================
(PID.TID 0000.0001) // =======================================================
(PID.TID 0000.0001) // Begin OBCS MONITOR field statistics
(PID.TID 0000.0001) // =======================================================
(PID.TID 0000.0001) %MON obc_N_vVel_max               =  -1.0731266518443E-07
(PID.TID 0000.0001) %MON obc_N_vVel_min               =  -1.0731266518443E-07
(PID.TID 0000.0001) %MON obc_N_vVel_mean              =  -1.0731266518443E-07
(PID.TID 0000.0001) %MON obc_N_vVel_sd                =   3.7682219008411E-15
(PID.TID 0000.0001) %MON obc_N_vVel_Int               =  -7.0826359021722E+00
(PID.TID 0000.0001) // =======================================================
(PID.TID 0000.0001) // End OBCS MONITOR field statistics
(PID.TID 0000.0001) // =======================================================
 cg2d: Sum(rhs),rhsMax =   3.01003236746206E+00  4.53046240547783E+02
(PID.TID 0000.0001)      cg2d_init_res =   2.42393361653920E-06
(PID.TID 0000.0001)      cg2d_iters(min,last) =      -1      74
(PID.TID 0000.0001)      cg2d_last_res =   7.27263798529022E-12
(PID.TID 0000.0001) // =======================================================
(PID.TID 0000.0001) // Begin MONITOR dynamic field statistics
(PID.TID 0000.0001) // =======================================================
(PID.TID 0000.0001) %MON time_tsnumber                =                   965
(PID.TID 0000.0001) %MON time_secondsf                =   9.6500000000000E+04
(PID.TID 0000.0001) %MON dynstat_eta_max              =   5.7981476126391E+00
(PID.TID 0000.0001) %MON dynstat_eta_min              =  -1.4173383645687E+01
(PID.TID 0000.0001) %MON dynstat_eta_mean             =  -2.5253404592701E+00
(PID.TID 0000.0001) %MON dynstat_eta_sd               =   4.9414438310129E+00
(PID.TID 0000.0001) %MON dynstat_eta_del2             =   1.9058401074976E-01
(PID.TID 0000.0001) %MON dynstat_uvel_max             =   4.2834281738493E-03
(PID.TID 0000.0001) %MON dynstat_uvel_min             =  -1.8993143791618E-02
(PID.TID 0000.0001) %MON dynstat_uvel_mean            =  -1.3607779124023E-09
(PID.TID 0000.0001) %MON dynstat_uvel_sd              =   5.1301158655860E-04
(PID.TID 0000.0001) %MON dynstat_uvel_del2            =   8.0552703607959E-07
(PID.TID 0000.0001) %MON dynstat_vvel_max             =   1.4425281861413E-02
(PID.TID 0000.0001) %MON dynstat_vvel_min             =  -5.2313832236912E-03
(PID.TID 0000.0001) %MON dynstat_vvel_mean            =  -6.0910524298465E-08
(PID.TID 0000.0001) %MON dynstat_vvel_sd              =   2.7506732593292E-04
(PID.TID 0000.0001) %MON dynstat_vvel_del2            =   7.1969529394861E-07
(PID.TID 0000.0001) %MON dynstat_wvel_max             =   7.7912123208300E-04
(PID.TID 0000.0001) %MON dynstat_wvel_min             =  -8.3463965958648E-04
(PID.TID 0000.0001) %MON dynstat_wvel_mean            =   3.6770198180989E-10
(PID.TID 0000.0001) %MON dynstat_wvel_sd              =   1.3759496000416E-05
(PID.TID 0000.0001) %MON dynstat_wvel_del2            =   5.8106220652200E-08
(PID.TID 0000.0001) %MON dynstat_theta_max            =   1.2000000000000E+00
(PID.TID 0000.0001) %MON dynstat_theta_min            =  -1.0000000000000E+00
(PID.TID 0000.0001) %MON dynstat_theta_mean           =   5.6524338778923E-01
(PID.TID 0000.0001) %MON dynstat_theta_sd             =   8.4898814667142E-01
(PID.TID 0000.0001) %MON dynstat_theta_del2           =   2.0230515531550E-06
(PID.TID 0000.0001) %MON dynstat_salt_max             =   3.4700000000000E+01
(PID.TID 0000.0001) %MON dynstat_salt_min             =   3.4000000000000E+01
(PID.TID 0000.0001) %MON dynstat_salt_mean            =   3.4498011251400E+01
(PID.TID 0000.0001) %MON dynstat_salt_sd              =   2.7013093293299E-01
(PID.TID 0000.0001) %MON dynstat_salt_del2            =   7.9830216709545E-07
(PID.TID 0000.0001) %MON advcfl_uvel_max              =   1.8993143791618E-03
(PID.TID 0000.0001) %MON advcfl_vvel_max              =   1.4425281861413E-03
(PID.TID 0000.0001) %MON advcfl_wvel_max              =   4.1731982979324E-03
(PID.TID 0000.0001) %MON advcfl_W_hf_max              =   4.1731982979324E-03
(PID.TID 0000.0001) %MON pe_b_mean                    =  -6.8233871269613E-01
(PID.TID 0000.0001) %MON ke_max                       =   1.2267984931912E-04
(PID.TID 0000.0001) %MON ke_mean                      =   1.6694660777363E-07
(PID.TID 0000.0001) %MON ke_vol                       =   4.6182994510811E+12
(PID.TID 0000.0001) // =======================================================
(PID.TID 0000.0001) // End MONITOR dynamic field statistics
(PID.TID 0000.0001) // =======================================================
(PID.TID 0000.0001) // =======================================================
(PID.TID 0000.0001) // Begin OBCS MONITOR field statistics
(PID.TID 0000.0001) // =======================================================
(PID.TID 0000.0001) %MON obc_N_vVel_max               =  -9.1705229839671E-08
(PID.TID 0000.0001) %MON obc_N_vVel_min               =  -9.1705229839672E-08
(PID.TID 0000.0001) %MON obc_N_vVel_mean              =  -9.1705229839672E-08
(PID.TID 0000.0001) %MON obc_N_vVel_sd                =  -2.3034738432454E-28
(PID.TID 0000.0001) %MON obc_N_vVel_Int               =  -6.0525451694184E+00
(PID.TID 0000.0001) // =======================================================
(PID.TID 0000.0001) // End OBCS MONITOR field statistics
(PID.TID 0000.0001) // =======================================================
 cg2d: Sum(rhs),rhsMax =   3.01002706968885E+00  4.53046236415014E+02
(PID.TID 0000.0001)      cg2d_init_res =   2.42866038981565E-06
(PID.TID 0000.0001)      cg2d_iters(min,last) =      -1      74
(PID.TID 0000.0001)      cg2d_last_res =   7.28716634284057E-12
(PID.TID 0000.0001) // =======================================================
(PID.TID 0000.0001) // Begin MONITOR dynamic field statistics
(PID.TID 0000.0001) // =======================================================
(PID.TID 0000.0001) %MON time_tsnumber                =                   966
(PID.TID 0000.0001) %MON time_secondsf                =   9.6600000000000E+04
(PID.TID 0000.0001) %MON dynstat_eta_max              =   5.7981504397871E+00
(PID.TID 0000.0001) %MON dynstat_eta_min              =  -1.4173374520942E+01
(PID.TID 0000.0001) %MON dynstat_eta_mean             =  -2.5253359915367E+00
(PID.TID 0000.0001) %MON dynstat_eta_sd               =   4.9414425321784E+00
(PID.TID 0000.0001) %MON dynstat_eta_del2             =   1.9058402264056E-01
(PID.TID 0000.0001) %MON dynstat_uvel_max             =   4.2880358004087E-03
(PID.TID 0000.0001) %MON dynstat_uvel_min             =  -1.9041719317086E-02
(PID.TID 0000.0001) %MON dynstat_uvel_mean            =  -1.3615460479850E-09
(PID.TID 0000.0001) %MON dynstat_uvel_sd              =   5.1439877259966E-04
(PID.TID 0000.0001) %MON dynstat_uvel_del2            =   8.0747207331254E-07
(PID.TID 0000.0001) %MON dynstat_vvel_max             =   1.4458615306672E-02
(PID.TID 0000.0001) %MON dynstat_vvel_min             =  -5.2435666954960E-03
(PID.TID 0000.0001) %MON dynstat_vvel_mean            =  -4.4941979349559E-08
(PID.TID 0000.0001) %MON dynstat_vvel_sd              =   2.7566821164355E-04
(PID.TID 0000.0001) %MON dynstat_vvel_del2            =   7.2124646959112E-07
(PID.TID 0000.0001) %MON dynstat_wvel_max             =   7.8118961762455E-04
(PID.TID 0000.0001) %MON dynstat_wvel_min             =  -8.3731307864504E-04
(PID.TID 0000.0001) %MON dynstat_wvel_mean            =   3.6267095516787E-10
(PID.TID 0000.0001) %MON dynstat_wvel_sd              =   1.3813976385739E-05
(PID.TID 0000.0001) %MON dynstat_wvel_del2            =   5.8300836239847E-08
(PID.TID 0000.0001) %MON dynstat_theta_max            =   1.2000000000000E+00
(PID.TID 0000.0001) %MON dynstat_theta_min            =  -1.0000000000000E+00
(PID.TID 0000.0001) %MON dynstat_theta_mean           =   5.6524289924161E-01
(PID.TID 0000.0001) %MON dynstat_theta_sd             =   8.4898794372414E-01
(PID.TID 0000.0001) %MON dynstat_theta_del2           =   2.0274686010823E-06
(PID.TID 0000.0001) %MON dynstat_salt_max             =   3.4700000000000E+01
(PID.TID 0000.0001) %MON dynstat_salt_min             =   3.4000000000000E+01
(PID.TID 0000.0001) %MON dynstat_salt_mean            =   3.4498011056610E+01
(PID.TID 0000.0001) %MON dynstat_salt_sd              =   2.7013085733387E-01
(PID.TID 0000.0001) %MON dynstat_salt_del2            =   8.0005512175619E-07
(PID.TID 0000.0001) %MON advcfl_uvel_max              =   1.9041719317086E-03
(PID.TID 0000.0001) %MON advcfl_vvel_max              =   1.4458615306672E-03
(PID.TID 0000.0001) %MON advcfl_wvel_max              =   4.1865653932252E-03
(PID.TID 0000.0001) %MON advcfl_W_hf_max              =   4.1865653932252E-03
(PID.TID 0000.0001) %MON pe_b_mean                    =  -6.8233741787378E-01
(PID.TID 0000.0001) %MON ke_max                       =   1.2345529735897E-04
(PID.TID 0000.0001) %MON ke_mean                      =   1.6781127533748E-07
(PID.TID 0000.0001) %MON ke_vol                       =   4.6182994776719E+12
(PID.TID 0000.0001) // =======================================================
(PID.TID 0000.0001) // End MONITOR dynamic field statistics
(PID.TID 0000.0001) // =======================================================
(PID.TID 0000.0001) // =======================================================
(PID.TID 0000.0001) // Begin OBCS MONITOR field statistics
(PID.TID 0000.0001) // =======================================================
(PID.TID 0000.0001) %MON obc_N_vVel_max               =  -7.5916854187142E-08
(PID.TID 0000.0001) %MON obc_N_vVel_min               =  -7.5916854187144E-08
(PID.TID 0000.0001) %MON obc_N_vVel_mean              =  -7.5916854187144E-08
(PID.TID 0000.0001) %MON obc_N_vVel_sd                =  -1.8064914729561E-28
(PID.TID 0000.0001) %MON obc_N_vVel_Int               =  -5.0105123763515E+00
(PID.TID 0000.0001) // =======================================================
(PID.TID 0000.0001) // End OBCS MONITOR field statistics
(PID.TID 0000.0001) // =======================================================
 cg2d: Sum(rhs),rhsMax =   3.01002178418399E+00  4.53046232035097E+02
(PID.TID 0000.0001)      cg2d_init_res =   2.43343193006804E-06
(PID.TID 0000.0001)      cg2d_iters(min,last) =      -1      74
(PID.TID 0000.0001)      cg2d_last_res =   7.30181292072466E-12
(PID.TID 0000.0001) // =======================================================
(PID.TID 0000.0001) // Begin MONITOR dynamic field statistics
(PID.TID 0000.0001) // =======================================================
(PID.TID 0000.0001) %MON time_tsnumber                =                   967
(PID.TID 0000.0001) %MON time_secondsf                =   9.6700000000000E+04
(PID.TID 0000.0001) %MON dynstat_eta_max              =   5.7981532382742E+00
(PID.TID 0000.0001) %MON dynstat_eta_min              =  -1.4173365401491E+01
(PID.TID 0000.0001) %MON dynstat_eta_mean             =  -2.5253315327187E+00
(PID.TID 0000.0001) %MON dynstat_eta_sd               =   4.9414412365955E+00
(PID.TID 0000.0001) %MON dynstat_eta_del2             =   1.9058403457041E-01
(PID.TID 0000.0001) %MON dynstat_uvel_max             =   4.2926367588052E-03
(PID.TID 0000.0001) %MON dynstat_uvel_min             =  -1.9090371469924E-02
(PID.TID 0000.0001) %MON dynstat_uvel_mean            =  -1.3581059803286E-09
(PID.TID 0000.0001) %MON dynstat_uvel_sd              =   5.1578906762052E-04
(PID.TID 0000.0001) %MON dynstat_uvel_del2            =   8.0942241267843E-07
(PID.TID 0000.0001) %MON dynstat_vvel_max             =   1.4491990146748E-02
(PID.TID 0000.0001) %MON dynstat_vvel_min             =  -5.2557724109885E-03
(PID.TID 0000.0001) %MON dynstat_vvel_mean            =  -2.8951807346988E-08
(PID.TID 0000.0001) %MON dynstat_vvel_sd              =   2.7627031900592E-04
(PID.TID 0000.0001) %MON dynstat_vvel_del2            =   7.2279017499708E-07
(PID.TID 0000.0001) %MON dynstat_wvel_max             =   7.8326176553736E-04
(PID.TID 0000.0001) %MON dynstat_wvel_min             =  -8.3999381297265E-04
(PID.TID 0000.0001) %MON dynstat_wvel_mean            =   3.5690712864779E-10
(PID.TID 0000.0001) %MON dynstat_wvel_sd              =   1.3867850182330E-05
(PID.TID 0000.0001) %MON dynstat_wvel_del2            =   5.8476027331326E-08
(PID.TID 0000.0001) %MON dynstat_theta_max            =   1.2000000000000E+00
(PID.TID 0000.0001) %MON dynstat_theta_min            =  -1.0000000000000E+00
(PID.TID 0000.0001) %MON dynstat_theta_mean           =   5.6524240974460E-01
(PID.TID 0000.0001) %MON dynstat_theta_sd             =   8.4898774029881E-01
(PID.TID 0000.0001) %MON dynstat_theta_del2           =   2.0318968013535E-06
(PID.TID 0000.0001) %MON dynstat_salt_max             =   3.4700000000000E+01
(PID.TID 0000.0001) %MON dynstat_salt_min             =   3.4000000000000E+01
(PID.TID 0000.0001) %MON dynstat_salt_mean            =   3.4498010861439E+01
(PID.TID 0000.0001) %MON dynstat_salt_sd              =   2.7013078154933E-01
(PID.TID 0000.0001) %MON dynstat_salt_del2            =   8.0181184181172E-07
(PID.TID 0000.0001) %MON advcfl_uvel_max              =   1.9090371469924E-03
(PID.TID 0000.0001) %MON advcfl_vvel_max              =   1.4491990146748E-03
(PID.TID 0000.0001) %MON advcfl_wvel_max              =   4.1999690648633E-03
(PID.TID 0000.0001) %MON advcfl_W_hf_max              =   4.1999690648633E-03
(PID.TID 0000.0001) %MON pe_b_mean                    =  -6.8233612385339E-01
(PID.TID 0000.0001) %MON ke_max                       =   1.2423501030255E-04
(PID.TID 0000.0001) %MON ke_mean                      =   1.6868010324221E-07
(PID.TID 0000.0001) %MON ke_vol                       =   4.6182995042103E+12
(PID.TID 0000.0001) // =======================================================
(PID.TID 0000.0001) // End MONITOR dynamic field statistics
(PID.TID 0000.0001) // =======================================================
(PID.TID 0000.0001) // =======================================================
(PID.TID 0000.0001) // Begin OBCS MONITOR field statistics
(PID.TID 0000.0001) // =======================================================
(PID.TID 0000.0001) %MON obc_N_vVel_max               =  -6.0050185771396E-08
(PID.TID 0000.0001) %MON obc_N_vVel_min               =  -6.0050185771398E-08
(PID.TID 0000.0001) %MON obc_N_vVel_mean              =  -6.0050185771398E-08
(PID.TID 0000.0001) %MON obc_N_vVel_sd                =  -1.5619445923376E-28
(PID.TID 0000.0001) %MON obc_N_vVel_Int               =  -3.9633122609123E+00
(PID.TID 0000.0001) // =======================================================
(PID.TID 0000.0001) // End OBCS MONITOR field statistics
(PID.TID 0000.0001) // =======================================================
 cg2d: Sum(rhs),rhsMax =   3.01001651108513E+00  4.53046227379494E+02
(PID.TID 0000.0001)      cg2d_init_res =   2.43818123388972E-06
(PID.TID 0000.0001)      cg2d_iters(min,last) =      -1      74
(PID.TID 0000.0001)      cg2d_last_res =   7.31656840962148E-12
(PID.TID 0000.0001) // =======================================================
(PID.TID 0000.0001) // Begin MONITOR dynamic field statistics
(PID.TID 0000.0001) // =======================================================
(PID.TID 0000.0001) %MON time_tsnumber                =                   968
(PID.TID 0000.0001) %MON time_secondsf                =   9.6800000000000E+04
(PID.TID 0000.0001) %MON dynstat_eta_max              =   5.7981560081855E+00
(PID.TID 0000.0001) %MON dynstat_eta_min              =  -1.4173356287165E+01
(PID.TID 0000.0001) %MON dynstat_eta_mean             =  -2.5253270827724E+00
(PID.TID 0000.0001) %MON dynstat_eta_sd               =   4.9414399441449E+00
(PID.TID 0000.0001) %MON dynstat_eta_del2             =   1.9058404653855E-01
(PID.TID 0000.0001) %MON dynstat_uvel_max             =   4.2972310157943E-03
(PID.TID 0000.0001) %MON dynstat_uvel_min             =  -1.9139100133292E-02
(PID.TID 0000.0001) %MON dynstat_uvel_mean            =  -1.3503882226684E-09
(PID.TID 0000.0001) %MON dynstat_uvel_sd              =   5.1718247405746E-04
(PID.TID 0000.0001) %MON dynstat_uvel_del2            =   8.1137806595457E-07
(PID.TID 0000.0001) %MON dynstat_vvel_max             =   1.4525406292611E-02
(PID.TID 0000.0001) %MON dynstat_vvel_min             =  -5.2680004088597E-03
(PID.TID 0000.0001) %MON dynstat_vvel_mean            =  -1.3046322364754E-08
(PID.TID 0000.0001) %MON dynstat_vvel_sd              =   2.7687327388415E-04
(PID.TID 0000.0001) %MON dynstat_vvel_del2            =   7.2432558399608E-07
(PID.TID 0000.0001) %MON dynstat_wvel_max             =   7.8533767681184E-04
(PID.TID 0000.0001) %MON dynstat_wvel_min             =  -8.4268187394897E-04
(PID.TID 0000.0001) %MON dynstat_wvel_mean            =   3.5043996316972E-10
(PID.TID 0000.0001) %MON dynstat_wvel_sd              =   1.3919878698442E-05
(PID.TID 0000.0001) %MON dynstat_wvel_del2            =   5.8625957242335E-08
(PID.TID 0000.0001) %MON dynstat_theta_max            =   1.2000000000000E+00
(PID.TID 0000.0001) %MON dynstat_theta_min            =  -1.0000000000000E+00
(PID.TID 0000.0001) %MON dynstat_theta_mean           =   5.6524191929837E-01
(PID.TID 0000.0001) %MON dynstat_theta_sd             =   8.4898753639716E-01
(PID.TID 0000.0001) %MON dynstat_theta_del2           =   2.0363373886055E-06
(PID.TID 0000.0001) %MON dynstat_salt_max             =   3.4700000000000E+01
(PID.TID 0000.0001) %MON dynstat_salt_min             =   3.4000000000000E+01
(PID.TID 0000.0001) %MON dynstat_salt_mean            =   3.4498010665886E+01
(PID.TID 0000.0001) %MON dynstat_salt_sd              =   2.7013070557982E-01
(PID.TID 0000.0001) %MON dynstat_salt_del2            =   8.0357264302905E-07
(PID.TID 0000.0001) %MON advcfl_uvel_max              =   1.9139100133292E-03
(PID.TID 0000.0001) %MON advcfl_vvel_max              =   1.4525406292611E-03
(PID.TID 0000.0001) %MON advcfl_wvel_max              =   4.2134093697448E-03
(PID.TID 0000.0001) %MON advcfl_W_hf_max              =   4.2134093697448E-03
(PID.TID 0000.0001) %MON pe_b_mean                    =  -6.8233483060445E-01
(PID.TID 0000.0001) %MON ke_max                       =   1.2501900727096E-04
(PID.TID 0000.0001) %MON ke_mean                      =   1.6955300407168E-07
(PID.TID 0000.0001) %MON ke_vol                       =   4.6182995306957E+12
(PID.TID 0000.0001) // =======================================================
(PID.TID 0000.0001) // End MONITOR dynamic field statistics
(PID.TID 0000.0001) // =======================================================
(PID.TID 0000.0001) // =======================================================
(PID.TID 0000.0001) // Begin OBCS MONITOR field statistics
(PID.TID 0000.0001) // =======================================================
(PID.TID 0000.0001) %MON obc_N_vVel_max               =  -4.4209743223033E-08
(PID.TID 0000.0001) %MON obc_N_vVel_min               =  -4.4209743223034E-08
(PID.TID 0000.0001) %MON obc_N_vVel_mean              =  -4.4209743223034E-08
(PID.TID 0000.0001) %MON obc_N_vVel_sd                =  -4.3781780239766E-29
(PID.TID 0000.0001) %MON obc_N_vVel_Int               =  -2.9178430527202E+00
(PID.TID 0000.0001) // =======================================================
(PID.TID 0000.0001) // End OBCS MONITOR field statistics
(PID.TID 0000.0001) // =======================================================
 cg2d: Sum(rhs),rhsMax =   3.01001125038666E+00  4.53046222420201E+02
(PID.TID 0000.0001)      cg2d_init_res =   2.44285473047079E-06
(PID.TID 0000.0001)      cg2d_iters(min,last) =      -1      74
(PID.TID 0000.0001)      cg2d_last_res =   7.33147723686813E-12
(PID.TID 0000.0001) // =======================================================
(PID.TID 0000.0001) // Begin MONITOR dynamic field statistics
(PID.TID 0000.0001) // =======================================================
(PID.TID 0000.0001) %MON time_tsnumber                =                   969
(PID.TID 0000.0001) %MON time_secondsf                =   9.6900000000000E+04
(PID.TID 0000.0001) %MON dynstat_eta_max              =   5.7981587497780E+00
(PID.TID 0000.0001) %MON dynstat_eta_min              =  -1.4173347177582E+01
(PID.TID 0000.0001) %MON dynstat_eta_mean             =  -2.5253226415370E+00
(PID.TID 0000.0001) %MON dynstat_eta_sd               =   4.9414386546641E+00
(PID.TID 0000.0001) %MON dynstat_eta_del2             =   1.9058405854399E-01
(PID.TID 0000.0001) %MON dynstat_uvel_max             =   4.3018185379431E-03
(PID.TID 0000.0001) %MON dynstat_uvel_min             =  -1.9187905189668E-02
(PID.TID 0000.0001) %MON dynstat_uvel_mean            =  -1.3383569654742E-09
(PID.TID 0000.0001) %MON dynstat_uvel_sd              =   5.1857899449331E-04
(PID.TID 0000.0001) %MON dynstat_uvel_del2            =   8.1333904348983E-07
(PID.TID 0000.0001) %MON dynstat_vvel_max             =   1.4558863654625E-02
(PID.TID 0000.0001) %MON dynstat_vvel_min             =  -5.2802507275356E-03
(PID.TID 0000.0001) %MON dynstat_vvel_mean            =   2.6674900756529E-09
(PID.TID 0000.0001) %MON dynstat_vvel_sd              =   2.7747672625020E-04
(PID.TID 0000.0001) %MON dynstat_vvel_del2            =   7.2585250415123E-07
(PID.TID 0000.0001) %MON dynstat_wvel_max             =   7.8741735241222E-04
(PID.TID 0000.0001) %MON dynstat_wvel_min             =  -8.4537727292951E-04
(PID.TID 0000.0001) %MON dynstat_wvel_mean            =   3.4330492159496E-10
(PID.TID 0000.0001) %MON dynstat_wvel_sd              =   1.3969028372029E-05
(PID.TID 0000.0001) %MON dynstat_wvel_del2            =   5.8747069077126E-08
(PID.TID 0000.0001) %MON dynstat_theta_max            =   1.2000000000000E+00
(PID.TID 0000.0001) %MON dynstat_theta_min            =  -1.0000000000000E+00
(PID.TID 0000.0001) %MON dynstat_theta_mean           =   5.6524142790277E-01
(PID.TID 0000.0001) %MON dynstat_theta_sd             =   8.4898733201886E-01
(PID.TID 0000.0001) %MON dynstat_theta_del2           =   2.0407910073601E-06
(PID.TID 0000.0001) %MON dynstat_salt_max             =   3.4700000000000E+01
(PID.TID 0000.0001) %MON dynstat_salt_min             =   3.4000000000000E+01
(PID.TID 0000.0001) %MON dynstat_salt_mean            =   3.4498010469952E+01
(PID.TID 0000.0001) %MON dynstat_salt_sd              =   2.7013062942542E-01
(PID.TID 0000.0001) %MON dynstat_salt_del2            =   8.0533769041539E-07
(PID.TID 0000.0001) %MON advcfl_uvel_max              =   1.9187905189668E-03
(PID.TID 0000.0001) %MON advcfl_vvel_max              =   1.4558863654625E-03
(PID.TID 0000.0001) %MON advcfl_wvel_max              =   4.2268863646476E-03
(PID.TID 0000.0001) %MON advcfl_W_hf_max              =   4.2268863646476E-03
(PID.TID 0000.0001) %MON pe_b_mean                    =  -6.8233353807305E-01
(PID.TID 0000.0001) %MON ke_max                       =   1.2580730745567E-04
(PID.TID 0000.0001) %MON ke_mean                      =   1.7042989630919E-07
(PID.TID 0000.0001) %MON ke_vol                       =   4.6182995571283E+12
(PID.TID 0000.0001) // =======================================================
(PID.TID 0000.0001) // End MONITOR dynamic field statistics
(PID.TID 0000.0001) // =======================================================
(PID.TID 0000.0001) // =======================================================
(PID.TID 0000.0001) // Begin OBCS MONITOR field statistics
(PID.TID 0000.0001) // =======================================================
(PID.TID 0000.0001) %MON obc_N_vVel_max               =  -2.8501163863864E-08
(PID.TID 0000.0001) %MON obc_N_vVel_min               =  -2.8501163863864E-08
(PID.TID 0000.0001) %MON obc_N_vVel_mean              =  -2.8501163863864E-08
(PID.TID 0000.0001) %MON obc_N_vVel_sd                =  -4.4767856371292E-29
(PID.TID 0000.0001) %MON obc_N_vVel_Int               =  -1.8810768150150E+00
(PID.TID 0000.0001) // =======================================================
(PID.TID 0000.0001) // End OBCS MONITOR field statistics
(PID.TID 0000.0001) // =======================================================
 cg2d: Sum(rhs),rhsMax =   3.01000600193834E+00  4.53046217129805E+02
(PID.TID 0000.0001)      cg2d_init_res =   2.44742083483481E-06
(PID.TID 0000.0001)      cg2d_iters(min,last) =      -1      74
(PID.TID 0000.0001)      cg2d_last_res =   7.34657979847976E-12
(PID.TID 0000.0001) // =======================================================
(PID.TID 0000.0001) // Begin MONITOR dynamic field statistics
(PID.TID 0000.0001) // =======================================================
(PID.TID 0000.0001) %MON time_tsnumber                =                   970
(PID.TID 0000.0001) %MON time_secondsf                =   9.7000000000000E+04
(PID.TID 0000.0001) %MON dynstat_eta_max              =   5.7981614635278E+00
(PID.TID 0000.0001) %MON dynstat_eta_min              =  -1.4173338072153E+01
(PID.TID 0000.0001) %MON dynstat_eta_mean             =  -2.5253182087337E+00
(PID.TID 0000.0001) %MON dynstat_eta_sd               =   4.9414373679550E+00
(PID.TID 0000.0001) %MON dynstat_eta_del2             =   1.9058407058587E-01
(PID.TID 0000.0001) %MON dynstat_uvel_max             =   4.3063992918135E-03
(PID.TID 0000.0001) %MON dynstat_uvel_min             =  -1.9236786520819E-02
(PID.TID 0000.0001) %MON dynstat_uvel_mean            =  -1.3220088928165E-09
(PID.TID 0000.0001) %MON dynstat_uvel_sd              =   5.1997863159718E-04
(PID.TID 0000.0001) %MON dynstat_uvel_del2            =   8.1530535413484E-07
(PID.TID 0000.0001) %MON dynstat_vvel_max             =   1.4592362142776E-02
(PID.TID 0000.0001) %MON dynstat_vvel_min             =  -5.2925234051209E-03
(PID.TID 0000.0001) %MON dynstat_vvel_mean            =   1.8082774253528E-08
(PID.TID 0000.0001) %MON dynstat_vvel_sd              =   2.7808036444261E-04
(PID.TID 0000.0001) %MON dynstat_vvel_del2            =   7.2737143365945E-07
(PID.TID 0000.0001) %MON dynstat_wvel_max             =   7.8950079326814E-04
(PID.TID 0000.0001) %MON dynstat_wvel_min             =  -8.4808002119781E-04
(PID.TID 0000.0001) %MON dynstat_wvel_mean            =   3.3554284563544E-10
(PID.TID 0000.0001) %MON dynstat_wvel_sd              =   1.4014517847096E-05
(PID.TID 0000.0001) %MON dynstat_wvel_del2            =   5.8838382552858E-08
(PID.TID 0000.0001) %MON dynstat_theta_max            =   1.2000000000000E+00
(PID.TID 0000.0001) %MON dynstat_theta_min            =  -1.0000000000000E+00
(PID.TID 0000.0001) %MON dynstat_theta_mean           =   5.6524093555727E-01
(PID.TID 0000.0001) %MON dynstat_theta_sd             =   8.4898712716685E-01
(PID.TID 0000.0001) %MON dynstat_theta_del2           =   2.0452576408866E-06
(PID.TID 0000.0001) %MON dynstat_salt_max             =   3.4700000000000E+01
(PID.TID 0000.0001) %MON dynstat_salt_min             =   3.4000000000000E+01
(PID.TID 0000.0001) %MON dynstat_salt_mean            =   3.4498010273635E+01
(PID.TID 0000.0001) %MON dynstat_salt_sd              =   2.7013055308684E-01
(PID.TID 0000.0001) %MON dynstat_salt_del2            =   8.0710698481948E-07
(PID.TID 0000.0001) %MON advcfl_uvel_max              =   1.9236786520819E-03
(PID.TID 0000.0001) %MON advcfl_vvel_max              =   1.4592362142776E-03
(PID.TID 0000.0001) %MON advcfl_wvel_max              =   4.2404001059890E-03
(PID.TID 0000.0001) %MON advcfl_W_hf_max              =   4.2404001059890E-03
(PID.TID 0000.0001) %MON pe_b_mean                    =  -6.8233224618229E-01
(PID.TID 0000.0001) %MON ke_max                       =   1.2659993011894E-04
(PID.TID 0000.0001) %MON ke_mean                      =   1.7131070834314E-07
(PID.TID 0000.0001) %MON ke_vol                       =   4.6182995835093E+12
(PID.TID 0000.0001) // =======================================================
(PID.TID 0000.0001) // End MONITOR dynamic field statistics
(PID.TID 0000.0001) // =======================================================
(PID.TID 0000.0001) // =======================================================
(PID.TID 0000.0001) // Begin OBCS MONITOR field statistics
(PID.TID 0000.0001) // =======================================================
(PID.TID 0000.0001) %MON obc_N_vVel_max               =  -1.3030382671700E-08
(PID.TID 0000.0001) %MON obc_N_vVel_min               =  -1.3030382671700E-08
(PID.TID 0000.0001) %MON obc_N_vVel_mean              =  -1.3030382671700E-08
(PID.TID 0000.0001) %MON obc_N_vVel_sd                =  -1.1586394545434E-30
(PID.TID 0000.0001) %MON obc_N_vVel_Int               =  -8.6000525633219E-01
(PID.TID 0000.0001) // =======================================================
(PID.TID 0000.0001) // End OBCS MONITOR field statistics
(PID.TID 0000.0001) // =======================================================
 cg2d: Sum(rhs),rhsMax =   3.01000076544490E+00  4.53046211481734E+02
(PID.TID 0000.0001)      cg2d_init_res =   2.45186765745310E-06
(PID.TID 0000.0001)      cg2d_iters(min,last) =      -1      74
(PID.TID 0000.0001)      cg2d_last_res =   7.36186659136641E-12
(PID.TID 0000.0001) // =======================================================
(PID.TID 0000.0001) // Begin MONITOR dynamic field statistics
(PID.TID 0000.0001) // =======================================================
(PID.TID 0000.0001) %MON time_tsnumber                =                   971
(PID.TID 0000.0001) %MON time_secondsf                =   9.7100000000000E+04
(PID.TID 0000.0001) %MON dynstat_eta_max              =   5.7981641500909E+00
(PID.TID 0000.0001) %MON dynstat_eta_min              =  -1.4173328970093E+01
(PID.TID 0000.0001) %MON dynstat_eta_mean             =  -2.5253137839665E+00
(PID.TID 0000.0001) %MON dynstat_eta_sd               =   4.9414360837839E+00
(PID.TID 0000.0001) %MON dynstat_eta_del2             =   1.9058408266322E-01
(PID.TID 0000.0001) %MON dynstat_uvel_max             =   4.3109732439408E-03
(PID.TID 0000.0001) %MON dynstat_uvel_min             =  -1.9285744007917E-02
(PID.TID 0000.0001) %MON dynstat_uvel_mean            =  -1.3013751749281E-09
(PID.TID 0000.0001) %MON dynstat_uvel_sd              =   5.2138138806414E-04
(PID.TID 0000.0001) %MON dynstat_uvel_del2            =   8.1727700524045E-07
(PID.TID 0000.0001) %MON dynstat_vvel_max             =   1.4625901666760E-02
(PID.TID 0000.0001) %MON dynstat_vvel_min             =  -5.3048184793285E-03
(PID.TID 0000.0001) %MON dynstat_vvel_mean            =   3.3093616100413E-08
(PID.TID 0000.0001) %MON dynstat_vvel_sd              =   2.7868392589355E-04
(PID.TID 0000.0001) %MON dynstat_vvel_del2            =   7.2888355877436E-07
(PID.TID 0000.0001) %MON dynstat_wvel_max             =   7.9158800028475E-04
(PID.TID 0000.0001) %MON dynstat_wvel_min             =  -8.5079012993128E-04
(PID.TID 0000.0001) %MON dynstat_wvel_mean            =   3.2720005041099E-10
(PID.TID 0000.0001) %MON dynstat_wvel_sd              =   1.4055840358308E-05
(PID.TID 0000.0001) %MON dynstat_wvel_del2            =   5.8901543202807E-08
(PID.TID 0000.0001) %MON dynstat_theta_max            =   1.2000000000000E+00
(PID.TID 0000.0001) %MON dynstat_theta_min            =  -1.0000000000000E+00
(PID.TID 0000.0001) %MON dynstat_theta_mean           =   5.6524044226094E-01
(PID.TID 0000.0001) %MON dynstat_theta_sd             =   8.4898692184330E-01
(PID.TID 0000.0001) %MON dynstat_theta_del2           =   2.0497366180014E-06
(PID.TID 0000.0001) %MON dynstat_salt_max             =   3.4700000000000E+01
(PID.TID 0000.0001) %MON dynstat_salt_min             =   3.4000000000000E+01
(PID.TID 0000.0001) %MON dynstat_salt_mean            =   3.4498010076936E+01
(PID.TID 0000.0001) %MON dynstat_salt_sd              =   2.7013047656480E-01
(PID.TID 0000.0001) %MON dynstat_salt_del2            =   8.0888035722025E-07
(PID.TID 0000.0001) %MON advcfl_uvel_max              =   1.9285744007917E-03
(PID.TID 0000.0001) %MON advcfl_vvel_max              =   1.4625901666760E-03
(PID.TID 0000.0001) %MON advcfl_wvel_max              =   4.2539506496564E-03
(PID.TID 0000.0001) %MON advcfl_W_hf_max              =   4.2539506496564E-03
(PID.TID 0000.0001) %MON pe_b_mean                    =  -6.8233095483255E-01
(PID.TID 0000.0001) %MON ke_max                       =   1.2739689459332E-04
(PID.TID 0000.0001) %MON ke_mean                      =   1.7219538154129E-07
(PID.TID 0000.0001) %MON ke_vol                       =   4.6182996098401E+12
(PID.TID 0000.0001) // =======================================================
(PID.TID 0000.0001) // End MONITOR dynamic field statistics
(PID.TID 0000.0001) // =======================================================
(PID.TID 0000.0001) // =======================================================
(PID.TID 0000.0001) // Begin OBCS MONITOR field statistics
(PID.TID 0000.0001) // =======================================================
(PID.TID 0000.0001) %MON obc_N_vVel_max               =   2.0971411037783E-09
(PID.TID 0000.0001) %MON obc_N_vVel_min               =   2.0971411037783E-09
(PID.TID 0000.0001) %MON obc_N_vVel_mean              =   2.0971411037783E-09
(PID.TID 0000.0001) %MON obc_N_vVel_sd                =   3.1524274001217E-16
(PID.TID 0000.0001) %MON obc_N_vVel_Int               =   1.3841131284936E-01
(PID.TID 0000.0001) // =======================================================
(PID.TID 0000.0001) // End OBCS MONITOR field statistics
(PID.TID 0000.0001) // =======================================================
 cg2d: Sum(rhs),rhsMax =   3.00999553997131E+00  4.53046205524667E+02
(PID.TID 0000.0001)      cg2d_init_res =   2.45620478428682E-06
(PID.TID 0000.0001)      cg2d_iters(min,last) =      -1      74
(PID.TID 0000.0001)      cg2d_last_res =   7.37740233988820E-12
(PID.TID 0000.0001) // =======================================================
(PID.TID 0000.0001) // Begin MONITOR dynamic field statistics
(PID.TID 0000.0001) // =======================================================
(PID.TID 0000.0001) %MON time_tsnumber                =                   972
(PID.TID 0000.0001) %MON time_secondsf                =   9.7200000000000E+04
(PID.TID 0000.0001) %MON dynstat_eta_max              =   5.7981668103223E+00
(PID.TID 0000.0001) %MON dynstat_eta_min              =  -1.4173319870418E+01
(PID.TID 0000.0001) %MON dynstat_eta_mean             =  -2.5253093667226E+00
(PID.TID 0000.0001) %MON dynstat_eta_sd               =   4.9414348018834E+00
(PID.TID 0000.0001) %MON dynstat_eta_del2             =   1.9058409477509E-01
(PID.TID 0000.0001) %MON dynstat_uvel_max             =   4.3155403607233E-03
(PID.TID 0000.0001) %MON dynstat_uvel_min             =  -1.9334777531485E-02
(PID.TID 0000.0001) %MON dynstat_uvel_mean            =  -1.2765190629294E-09
(PID.TID 0000.0001) %MON dynstat_uvel_sd              =   5.2278726655958E-04
(PID.TID 0000.0001) %MON dynstat_uvel_del2            =   8.1925400264681E-07
(PID.TID 0000.0001) %MON dynstat_vvel_max             =   1.4659482135984E-02
(PID.TID 0000.0001) %MON dynstat_vvel_min             =  -5.3171359874211E-03
(PID.TID 0000.0001) %MON dynstat_vvel_mean            =   4.7595866557125E-08
(PID.TID 0000.0001) %MON dynstat_vvel_sd              =   2.7928720402092E-04
(PID.TID 0000.0001) %MON dynstat_vvel_del2            =   7.3039069241934E-07
(PID.TID 0000.0001) %MON dynstat_wvel_max             =   7.9367897433558E-04
(PID.TID 0000.0001) %MON dynstat_wvel_min             =  -8.5350761031671E-04
(PID.TID 0000.0001) %MON dynstat_wvel_mean            =   3.1832774149657E-10
(PID.TID 0000.0001) %MON dynstat_wvel_sd              =   1.4092761779411E-05
(PID.TID 0000.0001) %MON dynstat_wvel_del2            =   5.8940626906210E-08
(PID.TID 0000.0001) %MON dynstat_theta_max            =   1.2000000000000E+00
(PID.TID 0000.0001) %MON dynstat_theta_min            =  -1.0000000000000E+00
(PID.TID 0000.0001) %MON dynstat_theta_mean           =   5.6523994801229E-01
(PID.TID 0000.0001) %MON dynstat_theta_sd             =   8.4898671605028E-01
(PID.TID 0000.0001) %MON dynstat_theta_del2           =   2.0542266784722E-06
(PID.TID 0000.0001) %MON dynstat_salt_max             =   3.4700000000000E+01
(PID.TID 0000.0001) %MON dynstat_salt_min             =   3.4000000000000E+01
(PID.TID 0000.0001) %MON dynstat_salt_mean            =   3.4498009879854E+01
(PID.TID 0000.0001) %MON dynstat_salt_sd              =   2.7013039986002E-01
(PID.TID 0000.0001) %MON dynstat_salt_del2            =   8.1065749219189E-07
(PID.TID 0000.0001) %MON advcfl_uvel_max              =   1.9334777531485E-03
(PID.TID 0000.0001) %MON advcfl_vvel_max              =   1.4659482135984E-03
(PID.TID 0000.0001) %MON advcfl_wvel_max              =   4.2675380515835E-03
(PID.TID 0000.0001) %MON advcfl_W_hf_max              =   4.2675380515835E-03
(PID.TID 0000.0001) %MON pe_b_mean                    =  -6.8232966390172E-01
(PID.TID 0000.0001) %MON ke_max                       =   1.2819822028377E-04
(PID.TID 0000.0001) %MON ke_mean                      =   1.7308387229552E-07
(PID.TID 0000.0001) %MON ke_vol                       =   4.6182996361232E+12
(PID.TID 0000.0001) // =======================================================
(PID.TID 0000.0001) // End MONITOR dynamic field statistics
(PID.TID 0000.0001) // =======================================================
(PID.TID 0000.0001) // =======================================================
(PID.TID 0000.0001) // Begin OBCS MONITOR field statistics
(PID.TID 0000.0001) // =======================================================
(PID.TID 0000.0001) %MON obc_N_vVel_max               =   1.6777253902623E-08
(PID.TID 0000.0001) %MON obc_N_vVel_min               =   1.6777253902623E-08
(PID.TID 0000.0001) %MON obc_N_vVel_mean              =   1.6777253902623E-08
(PID.TID 0000.0001) %MON obc_N_vVel_sd                =   3.8266474299529E-15
(PID.TID 0000.0001) %MON obc_N_vVel_Int               =   1.1072987575731E+00
(PID.TID 0000.0001) // =======================================================
(PID.TID 0000.0001) // End OBCS MONITOR field statistics
(PID.TID 0000.0001) // =======================================================
 cg2d: Sum(rhs),rhsMax =   3.00999032489609E+00  4.53046199240487E+02
(PID.TID 0000.0001)      cg2d_init_res =   2.46047919936183E-06
(PID.TID 0000.0001)      cg2d_iters(min,last) =      -1      74
(PID.TID 0000.0001)      cg2d_last_res =   7.39317642144924E-12
(PID.TID 0000.0001) // =======================================================
(PID.TID 0000.0001) // Begin MONITOR dynamic field statistics
(PID.TID 0000.0001) // =======================================================
(PID.TID 0000.0001) %MON time_tsnumber                =                   973
(PID.TID 0000.0001) %MON time_secondsf                =   9.7300000000000E+04
(PID.TID 0000.0001) %MON dynstat_eta_max              =   5.7981694452585E+00
(PID.TID 0000.0001) %MON dynstat_eta_min              =  -1.4173310771948E+01
(PID.TID 0000.0001) %MON dynstat_eta_mean             =  -2.5253049563793E+00
(PID.TID 0000.0001) %MON dynstat_eta_sd               =   4.9414335219513E+00
(PID.TID 0000.0001) %MON dynstat_eta_del2             =   1.9058410692048E-01
(PID.TID 0000.0001) %MON dynstat_uvel_max             =   4.3201006086999E-03
(PID.TID 0000.0001) %MON dynstat_uvel_min             =  -1.9383886971474E-02
(PID.TID 0000.0001) %MON dynstat_uvel_mean            =  -1.2475348373898E-09
(PID.TID 0000.0001) %MON dynstat_uvel_sd              =   5.2419626966724E-04
(PID.TID 0000.0001) %MON dynstat_uvel_del2            =   8.2123635077271E-07
(PID.TID 0000.0001) %MON dynstat_vvel_max             =   1.4693103459845E-02
(PID.TID 0000.0001) %MON dynstat_vvel_min             =  -5.3294759660822E-03
(PID.TID 0000.0001) %MON dynstat_vvel_mean            =   6.1487967572134E-08
(PID.TID 0000.0001) %MON dynstat_vvel_sd              =   2.7989005133105E-04
(PID.TID 0000.0001) %MON dynstat_vvel_del2            =   7.3189516052063E-07
(PID.TID 0000.0001) %MON dynstat_wvel_max             =   7.9577371626712E-04
(PID.TID 0000.0001) %MON dynstat_wvel_min             =  -8.5623247343837E-04
(PID.TID 0000.0001) %MON dynstat_wvel_mean            =   3.0898213476234E-10
(PID.TID 0000.0001) %MON dynstat_wvel_sd              =   1.4125296900267E-05
(PID.TID 0000.0001) %MON dynstat_wvel_del2            =   5.8961722853119E-08
(PID.TID 0000.0001) %MON dynstat_theta_max            =   1.2000000000000E+00
(PID.TID 0000.0001) %MON dynstat_theta_min            =  -1.0000000000000E+00
(PID.TID 0000.0001) %MON dynstat_theta_mean           =   5.6523945280986E-01
(PID.TID 0000.0001) %MON dynstat_theta_sd             =   8.4898650978556E-01
(PID.TID 0000.0001) %MON dynstat_theta_del2           =   2.0587261033195E-06
(PID.TID 0000.0001) %MON dynstat_salt_max             =   3.4700000000000E+01
(PID.TID 0000.0001) %MON dynstat_salt_min             =   3.4000000000000E+01
(PID.TID 0000.0001) %MON dynstat_salt_mean            =   3.4498009682388E+01
(PID.TID 0000.0001) %MON dynstat_salt_sd              =   2.7013032297164E-01
(PID.TID 0000.0001) %MON dynstat_salt_del2            =   8.1243795757795E-07
(PID.TID 0000.0001) %MON advcfl_uvel_max              =   1.9383886971474E-03
(PID.TID 0000.0001) %MON advcfl_vvel_max              =   1.4693103459845E-03
(PID.TID 0000.0001) %MON advcfl_wvel_max              =   4.2811623671918E-03
(PID.TID 0000.0001) %MON advcfl_W_hf_max              =   4.2811623671918E-03
(PID.TID 0000.0001) %MON pe_b_mean                    =  -6.8232837324658E-01
(PID.TID 0000.0001) %MON ke_max                       =   1.2900392666751E-04
(PID.TID 0000.0001) %MON ke_mean                      =   1.7397615303319E-07
(PID.TID 0000.0001) %MON ke_vol                       =   4.6182996623617E+12
(PID.TID 0000.0001) // =======================================================
(PID.TID 0000.0001) // End MONITOR dynamic field statistics
(PID.TID 0000.0001) // =======================================================
(PID.TID 0000.0001) // =======================================================
(PID.TID 0000.0001) // Begin OBCS MONITOR field statistics
(PID.TID 0000.0001) // =======================================================
(PID.TID 0000.0001) %MON obc_N_vVel_max               =   3.0907885290725E-08
(PID.TID 0000.0001) %MON obc_N_vVel_min               =   3.0907885290724E-08
(PID.TID 0000.0001) %MON obc_N_vVel_mean              =   3.0907885290725E-08
(PID.TID 0000.0001) %MON obc_N_vVel_sd                =  -8.5788623442785E-29
(PID.TID 0000.0001) %MON obc_N_vVel_Int               =   2.0399204291878E+00
(PID.TID 0000.0001) // =======================================================
(PID.TID 0000.0001) // End OBCS MONITOR field statistics
(PID.TID 0000.0001) // =======================================================
 cg2d: Sum(rhs),rhsMax =   3.00998511949002E+00  4.53046192607596E+02
(PID.TID 0000.0001)      cg2d_init_res =   2.46474744176533E-06
(PID.TID 0000.0001)      cg2d_iters(min,last) =      -1      74
(PID.TID 0000.0001)      cg2d_last_res =   7.40921311617235E-12
(PID.TID 0000.0001) // =======================================================
(PID.TID 0000.0001) // Begin MONITOR dynamic field statistics
(PID.TID 0000.0001) // =======================================================
(PID.TID 0000.0001) %MON time_tsnumber                =                   974
(PID.TID 0000.0001) %MON time_secondsf                =   9.7400000000000E+04
(PID.TID 0000.0001) %MON dynstat_eta_max              =   5.7981720561243E+00
(PID.TID 0000.0001) %MON dynstat_eta_min              =  -1.4173301673321E+01
(PID.TID 0000.0001) %MON dynstat_eta_mean             =  -2.5253005522046E+00
(PID.TID 0000.0001) %MON dynstat_eta_sd               =   4.9414322436554E+00
(PID.TID 0000.0001) %MON dynstat_eta_del2             =   1.9058411909839E-01
(PID.TID 0000.0001) %MON dynstat_uvel_max             =   4.3246539543862E-03
(PID.TID 0000.0001) %MON dynstat_uvel_min             =  -1.9433072207126E-02
(PID.TID 0000.0001) %MON dynstat_uvel_mean            =  -1.2145460483287E-09
(PID.TID 0000.0001) %MON dynstat_uvel_sd              =   5.2560839984341E-04
(PID.TID 0000.0001) %MON dynstat_uvel_del2            =   8.2322405273187E-07
(PID.TID 0000.0001) %MON dynstat_vvel_max             =   1.4726765547630E-02
(PID.TID 0000.0001) %MON dynstat_vvel_min             =  -5.3418384513870E-03
(PID.TID 0000.0001) %MON dynstat_vvel_mean            =   7.4671754244950E-08
(PID.TID 0000.0001) %MON dynstat_vvel_sd              =   2.8049237909646E-04
(PID.TID 0000.0001) %MON dynstat_vvel_del2            =   7.3339964746125E-07
(PID.TID 0000.0001) %MON dynstat_wvel_max             =   7.9787222690294E-04
(PID.TID 0000.0001) %MON dynstat_wvel_min             =  -8.5896473036426E-04
(PID.TID 0000.0001) %MON dynstat_wvel_mean            =   2.9922339756839E-10
(PID.TID 0000.0001) %MON dynstat_wvel_sd              =   1.4153668285685E-05
(PID.TID 0000.0001) %MON dynstat_wvel_del2            =   5.8972336776269E-08
(PID.TID 0000.0001) %MON dynstat_theta_max            =   1.2000000000000E+00
(PID.TID 0000.0001) %MON dynstat_theta_min            =  -1.0000000000000E+00
(PID.TID 0000.0001) %MON dynstat_theta_mean           =   5.6523895665183E-01
(PID.TID 0000.0001) %MON dynstat_theta_sd             =   8.4898630304688E-01
(PID.TID 0000.0001) %MON dynstat_theta_del2           =   2.0632328478946E-06
(PID.TID 0000.0001) %MON dynstat_salt_max             =   3.4700000000000E+01
(PID.TID 0000.0001) %MON dynstat_salt_min             =   3.4000000000000E+01
(PID.TID 0000.0001) %MON dynstat_salt_mean            =   3.4498009484538E+01
(PID.TID 0000.0001) %MON dynstat_salt_sd              =   2.7013024589880E-01
(PID.TID 0000.0001) %MON dynstat_salt_del2            =   8.1422124824916E-07
(PID.TID 0000.0001) %MON advcfl_uvel_max              =   1.9433072207126E-03
(PID.TID 0000.0001) %MON advcfl_vvel_max              =   1.4726765547630E-03
(PID.TID 0000.0001) %MON advcfl_wvel_max              =   4.2948236518213E-03
(PID.TID 0000.0001) %MON advcfl_W_hf_max              =   4.2948236518213E-03
(PID.TID 0000.0001) %MON pe_b_mean                    =  -6.8232708270317E-01
(PID.TID 0000.0001) %MON ke_max                       =   1.2981403329336E-04
(PID.TID 0000.0001) %MON ke_mean                      =   1.7487221228223E-07
(PID.TID 0000.0001) %MON ke_vol                       =   4.6182996885591E+12
(PID.TID 0000.0001) // =======================================================
(PID.TID 0000.0001) // End MONITOR dynamic field statistics
(PID.TID 0000.0001) // =======================================================
(PID.TID 0000.0001) // =======================================================
(PID.TID 0000.0001) // Begin OBCS MONITOR field statistics
(PID.TID 0000.0001) // =======================================================
(PID.TID 0000.0001) %MON obc_N_vVel_max               =   4.4389904474037E-08
(PID.TID 0000.0001) %MON obc_N_vVel_min               =   4.4389904474037E-08
(PID.TID 0000.0001) %MON obc_N_vVel_mean              =   4.4389904474037E-08
(PID.TID 0000.0001) %MON obc_N_vVel_sd                =  -6.6264316038565E-29
(PID.TID 0000.0001) %MON obc_N_vVel_Int               =   2.9297336952865E+00
(PID.TID 0000.0001) // =======================================================
(PID.TID 0000.0001) // End OBCS MONITOR field statistics
(PID.TID 0000.0001) // =======================================================
 cg2d: Sum(rhs),rhsMax =   3.00997992288706E+00  4.53046185605657E+02
(PID.TID 0000.0001)      cg2d_init_res =   2.46907426907492E-06
(PID.TID 0000.0001)      cg2d_iters(min,last) =      -1      74
(PID.TID 0000.0001)      cg2d_last_res =   7.42551189923685E-12
(PID.TID 0000.0001) // =======================================================
(PID.TID 0000.0001) // Begin MONITOR dynamic field statistics
(PID.TID 0000.0001) // =======================================================
(PID.TID 0000.0001) %MON time_tsnumber                =                   975
(PID.TID 0000.0001) %MON time_secondsf                =   9.7500000000000E+04
(PID.TID 0000.0001) %MON dynstat_eta_max              =   5.7981746443106E+00
(PID.TID 0000.0001) %MON dynstat_eta_min              =  -1.4173292572985E+01
(PID.TID 0000.0001) %MON dynstat_eta_mean             =  -2.5252961533585E+00
(PID.TID 0000.0001) %MON dynstat_eta_sd               =   4.9414309666348E+00
(PID.TID 0000.0001) %MON dynstat_eta_del2             =   1.9058413130793E-01
(PID.TID 0000.0001) %MON dynstat_uvel_max             =   4.3292003643458E-03
(PID.TID 0000.0001) %MON dynstat_uvel_min             =  -1.9482333117314E-02
(PID.TID 0000.0001) %MON dynstat_uvel_mean            =  -1.1777080391692E-09
(PID.TID 0000.0001) %MON dynstat_uvel_sd              =   5.2702365937891E-04
(PID.TID 0000.0001) %MON dynstat_uvel_del2            =   8.2521711049793E-07
(PID.TID 0000.0001) %MON dynstat_vvel_max             =   1.4760468308737E-02
(PID.TID 0000.0001) %MON dynstat_vvel_min             =  -5.3542234787338E-03
(PID.TID 0000.0001) %MON dynstat_vvel_mean            =   8.7053246855945E-08
(PID.TID 0000.0001) %MON dynstat_vvel_sd              =   2.8109415424261E-04
(PID.TID 0000.0001) %MON dynstat_vvel_del2            =   7.3490701574397E-07
(PID.TID 0000.0001) %MON dynstat_wvel_max             =   7.9997450703312E-04
(PID.TID 0000.0001) %MON dynstat_wvel_min             =  -8.6170439210791E-04
(PID.TID 0000.0001) %MON dynstat_wvel_mean            =   2.8911604439657E-10
(PID.TID 0000.0001) %MON dynstat_wvel_sd              =   1.4178253401034E-05
(PID.TID 0000.0001) %MON dynstat_wvel_del2            =   5.8980672497841E-08
(PID.TID 0000.0001) %MON dynstat_theta_max            =   1.2000000000000E+00
(PID.TID 0000.0001) %MON dynstat_theta_min            =  -1.0000000000000E+00
(PID.TID 0000.0001) %MON dynstat_theta_mean           =   5.6523845953584E-01
(PID.TID 0000.0001) %MON dynstat_theta_sd             =   8.4898609583340E-01
(PID.TID 0000.0001) %MON dynstat_theta_del2           =   2.0677447742040E-06
(PID.TID 0000.0001) %MON dynstat_salt_max             =   3.4700000000000E+01
(PID.TID 0000.0001) %MON dynstat_salt_min             =   3.4000000000000E+01
(PID.TID 0000.0001) %MON dynstat_salt_mean            =   3.4498009286303E+01
(PID.TID 0000.0001) %MON dynstat_salt_sd              =   2.7013016864141E-01
(PID.TID 0000.0001) %MON dynstat_salt_del2            =   8.1600682189463E-07
(PID.TID 0000.0001) %MON advcfl_uvel_max              =   1.9482333117314E-03
(PID.TID 0000.0001) %MON advcfl_vvel_max              =   1.4760468308737E-03
(PID.TID 0000.0001) %MON advcfl_wvel_max              =   4.3085219605396E-03
(PID.TID 0000.0001) %MON advcfl_W_hf_max              =   4.3085219605396E-03
(PID.TID 0000.0001) %MON pe_b_mean                    =  -6.8232579208729E-01
(PID.TID 0000.0001) %MON ke_max                       =   1.3062855978466E-04
(PID.TID 0000.0001) %MON ke_mean                      =   1.7577205395428E-07
(PID.TID 0000.0001) %MON ke_vol                       =   4.6182997147199E+12
(PID.TID 0000.0001) // =======================================================
(PID.TID 0000.0001) // End MONITOR dynamic field statistics
(PID.TID 0000.0001) // =======================================================
(PID.TID 0000.0001) // =======================================================
(PID.TID 0000.0001) // Begin OBCS MONITOR field statistics
(PID.TID 0000.0001) // =======================================================
(PID.TID 0000.0001) %MON obc_N_vVel_max               =   5.7127849370677E-08
(PID.TID 0000.0001) %MON obc_N_vVel_min               =   5.7127849370676E-08
(PID.TID 0000.0001) %MON obc_N_vVel_mean              =   5.7127849370676E-08
(PID.TID 0000.0001) %MON obc_N_vVel_sd                =   1.5900626406634E-14
(PID.TID 0000.0001) %MON obc_N_vVel_Int               =   3.7704380584646E+00
(PID.TID 0000.0001) // =======================================================
(PID.TID 0000.0001) // End OBCS MONITOR field statistics
(PID.TID 0000.0001) // =======================================================
 cg2d: Sum(rhs),rhsMax =   3.00997473408566E+00  4.53046178216392E+02
(PID.TID 0000.0001)      cg2d_init_res =   2.47352920823836E-06
(PID.TID 0000.0001)      cg2d_iters(min,last) =      -1      74
(PID.TID 0000.0001)      cg2d_last_res =   7.44206272961901E-12
(PID.TID 0000.0001) // =======================================================
(PID.TID 0000.0001) // Begin MONITOR dynamic field statistics
(PID.TID 0000.0001) // =======================================================
(PID.TID 0000.0001) %MON time_tsnumber                =                   976
(PID.TID 0000.0001) %MON time_secondsf                =   9.7600000000000E+04
(PID.TID 0000.0001) %MON dynstat_eta_max              =   5.7981772113758E+00
(PID.TID 0000.0001) %MON dynstat_eta_min              =  -1.4173283469234E+01
(PID.TID 0000.0001) %MON dynstat_eta_mean             =  -2.5252917588989E+00
(PID.TID 0000.0001) %MON dynstat_eta_sd               =   4.9414296904962E+00
(PID.TID 0000.0001) %MON dynstat_eta_del2             =   1.9058414354796E-01
(PID.TID 0000.0001) %MON dynstat_uvel_max             =   4.3337398051460E-03
(PID.TID 0000.0001) %MON dynstat_uvel_min             =  -1.9531669580195E-02
(PID.TID 0000.0001) %MON dynstat_uvel_mean            =  -1.1372003205593E-09
(PID.TID 0000.0001) %MON dynstat_uvel_sd              =   5.2844205036544E-04
(PID.TID 0000.0001) %MON dynstat_uvel_del2            =   8.2721552502193E-07
(PID.TID 0000.0001) %MON dynstat_vvel_max             =   1.4794211652768E-02
(PID.TID 0000.0001) %MON dynstat_vvel_min             =  -5.3666310827696E-03
(PID.TID 0000.0001) %MON dynstat_vvel_mean            =   9.8543427286476E-08
(PID.TID 0000.0001) %MON dynstat_vvel_sd              =   2.8169539422544E-04
(PID.TID 0000.0001) %MON dynstat_vvel_del2            =   7.3642011706315E-07
(PID.TID 0000.0001) %MON dynstat_wvel_max             =   8.0208055742453E-04
(PID.TID 0000.0001) %MON dynstat_wvel_min             =  -8.6445146966773E-04
(PID.TID 0000.0001) %MON dynstat_wvel_mean            =   2.7872808820682E-10
(PID.TID 0000.0001) %MON dynstat_wvel_sd              =   1.4199526409421E-05
(PID.TID 0000.0001) %MON dynstat_wvel_del2            =   5.8994862471780E-08
(PID.TID 0000.0001) %MON dynstat_theta_max            =   1.2000000000000E+00
(PID.TID 0000.0001) %MON dynstat_theta_min            =  -1.0000000000000E+00
(PID.TID 0000.0001) %MON dynstat_theta_mean           =   5.6523796145898E-01
(PID.TID 0000.0001) %MON dynstat_theta_sd             =   8.4898588814536E-01
(PID.TID 0000.0001) %MON dynstat_theta_del2           =   2.0722594188370E-06
(PID.TID 0000.0001) %MON dynstat_salt_max             =   3.4700000000000E+01
(PID.TID 0000.0001) %MON dynstat_salt_min             =   3.4000000000000E+01
(PID.TID 0000.0001) %MON dynstat_salt_mean            =   3.4498009087681E+01
(PID.TID 0000.0001) %MON dynstat_salt_sd              =   2.7013009119941E-01
(PID.TID 0000.0001) %MON dynstat_salt_del2            =   8.1779401206352E-07
(PID.TID 0000.0001) %MON advcfl_uvel_max              =   1.9531669580195E-03
(PID.TID 0000.0001) %MON advcfl_vvel_max              =   1.4794211652768E-03
(PID.TID 0000.0001) %MON advcfl_wvel_max              =   4.3222573483387E-03
(PID.TID 0000.0001) %MON advcfl_W_hf_max              =   4.3222573483387E-03
(PID.TID 0000.0001) %MON pe_b_mean                    =  -6.8232450119536E-01
(PID.TID 0000.0001) %MON ke_max                       =   1.3144752583719E-04
(PID.TID 0000.0001) %MON ke_mean                      =   1.7667569605191E-07
(PID.TID 0000.0001) %MON ke_vol                       =   4.6182997408491E+12
(PID.TID 0000.0001) // =======================================================
(PID.TID 0000.0001) // End MONITOR dynamic field statistics
(PID.TID 0000.0001) // =======================================================
(PID.TID 0000.0001) // =======================================================
(PID.TID 0000.0001) // Begin OBCS MONITOR field statistics
(PID.TID 0000.0001) // =======================================================
(PID.TID 0000.0001) %MON obc_N_vVel_max               =   6.9030757186648E-08
(PID.TID 0000.0001) %MON obc_N_vVel_min               =   6.9030757186647E-08
(PID.TID 0000.0001) %MON obc_N_vVel_mean              =   6.9030757186648E-08
(PID.TID 0000.0001) %MON obc_N_vVel_sd                =  -2.3981371518719E-28
(PID.TID 0000.0001) %MON obc_N_vVel_Int               =   4.5560299743188E+00
(PID.TID 0000.0001) // =======================================================
(PID.TID 0000.0001) // End OBCS MONITOR field statistics
(PID.TID 0000.0001) // =======================================================
 cg2d: Sum(rhs),rhsMax =   3.00996955195987E+00  4.53046170423205E+02
(PID.TID 0000.0001)      cg2d_init_res =   2.47816675470100E-06
(PID.TID 0000.0001)      cg2d_iters(min,last) =      -1      74
(PID.TID 0000.0001)      cg2d_last_res =   7.45876162428351E-12
(PID.TID 0000.0001) // =======================================================
(PID.TID 0000.0001) // Begin MONITOR dynamic field statistics
(PID.TID 0000.0001) // =======================================================
(PID.TID 0000.0001) %MON time_tsnumber                =                   977
(PID.TID 0000.0001) %MON time_secondsf                =   9.7700000000000E+04
(PID.TID 0000.0001) %MON dynstat_eta_max              =   5.7981797590422E+00
(PID.TID 0000.0001) %MON dynstat_eta_min              =  -1.4173274360192E+01
(PID.TID 0000.0001) %MON dynstat_eta_mean             =  -2.5252873677886E+00
(PID.TID 0000.0001) %MON dynstat_eta_sd               =   4.9414284148266E+00
(PID.TID 0000.0001) %MON dynstat_eta_del2             =   1.9058415581753E-01
(PID.TID 0000.0001) %MON dynstat_uvel_max             =   4.3382722435652E-03
(PID.TID 0000.0001) %MON dynstat_uvel_min             =  -1.9581081473351E-02
(PID.TID 0000.0001) %MON dynstat_uvel_mean            =  -1.0932294489634E-09
(PID.TID 0000.0001) %MON dynstat_uvel_sd              =   5.2986357464219E-04
(PID.TID 0000.0001) %MON dynstat_uvel_del2            =   8.2921929596926E-07
(PID.TID 0000.0001) %MON dynstat_vvel_max             =   1.4827995489592E-02
(PID.TID 0000.0001) %MON dynstat_vvel_min             =  -5.3790612972708E-03
(PID.TID 0000.0001) %MON dynstat_vvel_mean            =   1.0905900341108E-07
(PID.TID 0000.0001) %MON dynstat_vvel_sd              =   2.8229616067595E-04
(PID.TID 0000.0001) %MON dynstat_vvel_del2            =   7.3794161189828E-07
(PID.TID 0000.0001) %MON dynstat_wvel_max             =   8.0419037881865E-04
(PID.TID 0000.0001) %MON dynstat_wvel_min             =  -8.6720597399624E-04
(PID.TID 0000.0001) %MON dynstat_wvel_mean            =   2.6813072121557E-10
(PID.TID 0000.0001) %MON dynstat_wvel_sd              =   1.4218001189245E-05
(PID.TID 0000.0001) %MON dynstat_wvel_del2            =   5.9022225021614E-08
(PID.TID 0000.0001) %MON dynstat_theta_max            =   1.2000000000000E+00
(PID.TID 0000.0001) %MON dynstat_theta_min            =  -1.0000000000000E+00
(PID.TID 0000.0001) %MON dynstat_theta_mean           =   5.6523746241809E-01
(PID.TID 0000.0001) %MON dynstat_theta_sd             =   8.4898567998469E-01
(PID.TID 0000.0001) %MON dynstat_theta_del2           =   2.0767752640193E-06
(PID.TID 0000.0001) %MON dynstat_salt_max             =   3.4700000000000E+01
(PID.TID 0000.0001) %MON dynstat_salt_min             =   3.4000000000000E+01
(PID.TID 0000.0001) %MON dynstat_salt_mean            =   3.4498008888672E+01
(PID.TID 0000.0001) %MON dynstat_salt_sd              =   2.7013001357294E-01
(PID.TID 0000.0001) %MON dynstat_salt_del2            =   8.1958245555676E-07
(PID.TID 0000.0001) %MON advcfl_uvel_max              =   1.9581081473351E-03
(PID.TID 0000.0001) %MON advcfl_vvel_max              =   1.4827995489592E-03
(PID.TID 0000.0001) %MON advcfl_wvel_max              =   4.3360298699812E-03
(PID.TID 0000.0001) %MON advcfl_W_hf_max              =   4.3360298699812E-03
(PID.TID 0000.0001) %MON pe_b_mean                    =  -6.8232320980647E-01
(PID.TID 0000.0001) %MON ke_max                       =   1.3227095121809E-04
(PID.TID 0000.0001) %MON ke_mean                      =   1.7758316899845E-07
(PID.TID 0000.0001) %MON ke_vol                       =   4.6182997669521E+12
(PID.TID 0000.0001) // =======================================================
(PID.TID 0000.0001) // End MONITOR dynamic field statistics
(PID.TID 0000.0001) // =======================================================
(PID.TID 0000.0001) // =======================================================
(PID.TID 0000.0001) // Begin OBCS MONITOR field statistics
(PID.TID 0000.0001) // =======================================================
(PID.TID 0000.0001) %MON obc_N_vVel_max               =   8.0012926009230E-08
(PID.TID 0000.0001) %MON obc_N_vVel_min               =   8.0012926009229E-08
(PID.TID 0000.0001) %MON obc_N_vVel_mean              =   8.0012926009230E-08
(PID.TID 0000.0001) %MON obc_N_vVel_sd                =  -2.6979042958559E-28
(PID.TID 0000.0001) %MON obc_N_vVel_Int               =   5.2808531166092E+00
(PID.TID 0000.0001) // =======================================================
(PID.TID 0000.0001) // End OBCS MONITOR field statistics
(PID.TID 0000.0001) // =======================================================
 cg2d: Sum(rhs),rhsMax =   3.00996437526505E+00  4.53046162211762E+02
(PID.TID 0000.0001)      cg2d_init_res =   2.48305190453780E-06
(PID.TID 0000.0001)      cg2d_iters(min,last) =      -1      74
(PID.TID 0000.0001)      cg2d_last_res =   7.47573672919769E-12
(PID.TID 0000.0001) // =======================================================
(PID.TID 0000.0001) // Begin MONITOR dynamic field statistics
(PID.TID 0000.0001) // =======================================================
(PID.TID 0000.0001) %MON time_tsnumber                =                   978
(PID.TID 0000.0001) %MON time_secondsf                =   9.7800000000000E+04
(PID.TID 0000.0001) %MON dynstat_eta_max              =   5.7981822891627E+00
(PID.TID 0000.0001) %MON dynstat_eta_min              =  -1.4173265243849E+01
(PID.TID 0000.0001) %MON dynstat_eta_mean             =  -2.5252829789036E+00
(PID.TID 0000.0001) %MON dynstat_eta_sd               =   4.9414271391888E+00
(PID.TID 0000.0001) %MON dynstat_eta_del2             =   1.9058416811566E-01
(PID.TID 0000.0001) %MON dynstat_uvel_max             =   4.3427976464780E-03
(PID.TID 0000.0001) %MON dynstat_uvel_min             =  -1.9630568704391E-02
(PID.TID 0000.0001) %MON dynstat_uvel_mean            =  -1.0460311857554E-09
(PID.TID 0000.0001) %MON dynstat_uvel_sd              =   5.3128823431742E-04
(PID.TID 0000.0001) %MON dynstat_uvel_del2            =   8.3122842319786E-07
(PID.TID 0000.0001) %MON dynstat_vvel_max             =   1.4861819729449E-02
(PID.TID 0000.0001) %MON dynstat_vvel_min             =  -5.3915141720644E-03
(PID.TID 0000.0001) %MON dynstat_vvel_mean            =   1.1852316893697E-07
(PID.TID 0000.0001) %MON dynstat_vvel_sd              =   2.8289655295861E-04
(PID.TID 0000.0001) %MON dynstat_vvel_del2            =   7.3947381565115E-07
(PID.TID 0000.0001) %MON dynstat_wvel_max             =   8.0630397192900E-04
(PID.TID 0000.0001) %MON dynstat_wvel_min             =  -8.6996799596371E-04
(PID.TID 0000.0001) %MON dynstat_wvel_mean            =   2.5739823447485E-10
(PID.TID 0000.0001) %MON dynstat_wvel_sd              =   1.4234181960266E-05
(PID.TID 0000.0001) %MON dynstat_wvel_del2            =   5.9068627824595E-08
(PID.TID 0000.0001) %MON dynstat_theta_max            =   1.2000000000000E+00
(PID.TID 0000.0001) %MON dynstat_theta_min            =  -1.0000000000000E+00
(PID.TID 0000.0001) %MON dynstat_theta_mean           =   5.6523696240984E-01
(PID.TID 0000.0001) %MON dynstat_theta_sd             =   8.4898547135261E-01
(PID.TID 0000.0001) %MON dynstat_theta_del2           =   2.0812907997297E-06
(PID.TID 0000.0001) %MON dynstat_salt_max             =   3.4700000000000E+01
(PID.TID 0000.0001) %MON dynstat_salt_min             =   3.4000000000000E+01
(PID.TID 0000.0001) %MON dynstat_salt_mean            =   3.4498008689274E+01
(PID.TID 0000.0001) %MON dynstat_salt_sd              =   2.7012993576122E-01
(PID.TID 0000.0001) %MON dynstat_salt_del2            =   8.2137186542150E-07
(PID.TID 0000.0001) %MON advcfl_uvel_max              =   1.9630568704391E-03
(PID.TID 0000.0001) %MON advcfl_vvel_max              =   1.4861819729449E-03
(PID.TID 0000.0001) %MON advcfl_wvel_max              =   4.3498399798186E-03
(PID.TID 0000.0001) %MON advcfl_W_hf_max              =   4.3498399798186E-03
(PID.TID 0000.0001) %MON pe_b_mean                    =  -6.8232191768387E-01
(PID.TID 0000.0001) %MON ke_max                       =   1.3309885575283E-04
(PID.TID 0000.0001) %MON ke_mean                      =   1.7849451421990E-07
(PID.TID 0000.0001) %MON ke_vol                       =   4.6182997930353E+12
(PID.TID 0000.0001) // =======================================================
(PID.TID 0000.0001) // End MONITOR dynamic field statistics
(PID.TID 0000.0001) // =======================================================
(PID.TID 0000.0001) // =======================================================
(PID.TID 0000.0001) // Begin OBCS MONITOR field statistics
(PID.TID 0000.0001) // =======================================================
(PID.TID 0000.0001) %MON obc_N_vVel_max               =   8.9994677008968E-08
(PID.TID 0000.0001) %MON obc_N_vVel_min               =   8.9994677008966E-08
(PID.TID 0000.0001) %MON obc_N_vVel_mean              =   8.9994677008966E-08
(PID.TID 0000.0001) %MON obc_N_vVel_sd                =   2.0214597421282E-14
(PID.TID 0000.0001) %MON obc_N_vVel_Int               =   5.9396486825917E+00
(PID.TID 0000.0001) // =======================================================
(PID.TID 0000.0001) // End OBCS MONITOR field statistics
(PID.TID 0000.0001) // =======================================================
 cg2d: Sum(rhs),rhsMax =   3.00995920264372E+00  4.53046153570216E+02
(PID.TID 0000.0001)      cg2d_init_res =   2.48824158394934E-06
(PID.TID 0000.0001)      cg2d_iters(min,last) =      -1      74
(PID.TID 0000.0001)      cg2d_last_res =   7.49300665451939E-12
(PID.TID 0000.0001) // =======================================================
(PID.TID 0000.0001) // Begin MONITOR dynamic field statistics
(PID.TID 0000.0001) // =======================================================
(PID.TID 0000.0001) %MON time_tsnumber                =                   979
(PID.TID 0000.0001) %MON time_secondsf                =   9.7900000000000E+04
(PID.TID 0000.0001) %MON dynstat_eta_max              =   5.7981848037260E+00
(PID.TID 0000.0001) %MON dynstat_eta_min              =  -1.4173256118054E+01
(PID.TID 0000.0001) %MON dynstat_eta_mean             =  -2.5252785910389E+00
(PID.TID 0000.0001) %MON dynstat_eta_sd               =   4.9414258631279E+00
(PID.TID 0000.0001) %MON dynstat_eta_del2             =   1.9058418044144E-01
(PID.TID 0000.0001) %MON dynstat_uvel_max             =   4.3473159809224E-03
(PID.TID 0000.0001) %MON dynstat_uvel_min             =  -1.9680131259173E-02
(PID.TID 0000.0001) %MON dynstat_uvel_mean            =  -9.9585691590591E-10
(PID.TID 0000.0001) %MON dynstat_uvel_sd              =   5.3271603284558E-04
(PID.TID 0000.0001) %MON dynstat_uvel_del2            =   8.3324290946512E-07
(PID.TID 0000.0001) %MON dynstat_vvel_max             =   1.4895684283029E-02
(PID.TID 0000.0001) %MON dynstat_vvel_min             =  -5.4039898105653E-03
(PID.TID 0000.0001) %MON dynstat_vvel_mean            =   1.2686630869342E-07
(PID.TID 0000.0001) %MON dynstat_vvel_sd              =   2.8349670187096E-04
(PID.TID 0000.0001) %MON dynstat_vvel_del2            =   7.4101858222466E-07
(PID.TID 0000.0001) %MON dynstat_wvel_max             =   8.0842133743264E-04
(PID.TID 0000.0001) %MON dynstat_wvel_min             =  -8.7273787478191E-04
(PID.TID 0000.0001) %MON dynstat_wvel_mean            =   2.4660677983846E-10
(PID.TID 0000.0001) %MON dynstat_wvel_sd              =   1.4248526324443E-05
(PID.TID 0000.0001) %MON dynstat_wvel_del2            =   5.9138022572118E-08
(PID.TID 0000.0001) %MON dynstat_theta_max            =   1.2000000000000E+00
(PID.TID 0000.0001) %MON dynstat_theta_min            =  -1.0000000000000E+00
(PID.TID 0000.0001) %MON dynstat_theta_mean           =   5.6523646143072E-01
(PID.TID 0000.0001) %MON dynstat_theta_sd             =   8.4898526224922E-01
(PID.TID 0000.0001) %MON dynstat_theta_del2           =   2.0858049729507E-06
(PID.TID 0000.0001) %MON dynstat_salt_max             =   3.4700000000000E+01
(PID.TID 0000.0001) %MON dynstat_salt_min             =   3.4000000000000E+01
(PID.TID 0000.0001) %MON dynstat_salt_mean            =   3.4498008489487E+01
(PID.TID 0000.0001) %MON dynstat_salt_sd              =   2.7012985776609E-01
(PID.TID 0000.0001) %MON dynstat_salt_del2            =   8.2316305288660E-07
(PID.TID 0000.0001) %MON advcfl_uvel_max              =   1.9680131259173E-03
(PID.TID 0000.0001) %MON advcfl_vvel_max              =   1.4895684283029E-03
(PID.TID 0000.0001) %MON advcfl_wvel_max              =   4.3636893739095E-03
(PID.TID 0000.0001) %MON advcfl_W_hf_max              =   4.3636893739095E-03
(PID.TID 0000.0001) %MON pe_b_mean                    =  -6.8232062457630E-01
(PID.TID 0000.0001) %MON ke_max                       =   1.3393125927440E-04
(PID.TID 0000.0001) %MON ke_mean                      =   1.7940978303774E-07
(PID.TID 0000.0001) %MON ke_vol                       =   4.6182998191053E+12
(PID.TID 0000.0001) // =======================================================
(PID.TID 0000.0001) // End MONITOR dynamic field statistics
(PID.TID 0000.0001) // =======================================================
(PID.TID 0000.0001) // =======================================================
(PID.TID 0000.0001) // Begin OBCS MONITOR field statistics
(PID.TID 0000.0001) // =======================================================
(PID.TID 0000.0001) %MON obc_N_vVel_max               =   9.8903070615065E-08
(PID.TID 0000.0001) %MON obc_N_vVel_min               =   9.8903070615064E-08
(PID.TID 0000.0001) %MON obc_N_vVel_mean              =   9.8903070615064E-08
(PID.TID 0000.0001) %MON obc_N_vVel_sd                =  -6.7842037849007E-29
(PID.TID 0000.0001) %MON obc_N_vVel_Int               =   6.5276026605942E+00
(PID.TID 0000.0001) // =======================================================
(PID.TID 0000.0001) // End OBCS MONITOR field statistics
(PID.TID 0000.0001) // =======================================================
 cg2d: Sum(rhs),rhsMax =   3.00995403263809E+00  4.53046144488883E+02
(PID.TID 0000.0001)      cg2d_init_res =   2.49383605636793E-06
(PID.TID 0000.0001)      cg2d_iters(min,last) =      -1      74
(PID.TID 0000.0001)      cg2d_last_res =   7.51077374829509E-12
(PID.TID 0000.0001) // =======================================================
(PID.TID 0000.0001) // Begin MONITOR dynamic field statistics
(PID.TID 0000.0001) // =======================================================
(PID.TID 0000.0001) %MON time_tsnumber                =                   980
(PID.TID 0000.0001) %MON time_secondsf                =   9.8000000000000E+04
(PID.TID 0000.0001) %MON dynstat_eta_max              =   5.7981873048406E+00
(PID.TID 0000.0001) %MON dynstat_eta_min              =  -1.4173246980542E+01
(PID.TID 0000.0001) %MON dynstat_eta_mean             =  -2.5252742029175E+00
(PID.TID 0000.0001) %MON dynstat_eta_sd               =   4.9414245861775E+00
(PID.TID 0000.0001) %MON dynstat_eta_del2             =   1.9058419279447E-01
(PID.TID 0000.0001) %MON dynstat_uvel_max             =   4.3518272141032E-03
(PID.TID 0000.0001) %MON dynstat_uvel_min             =  -1.9729768947901E-02
(PID.TID 0000.0001) %MON dynstat_uvel_mean            =  -9.4295669558588E-10
(PID.TID 0000.0001) %MON dynstat_uvel_sd              =   5.3414697185055E-04
(PID.TID 0000.0001) %MON dynstat_uvel_del2            =   8.3526276448544E-07
(PID.TID 0000.0001) %MON dynstat_vvel_max             =   1.4929589061583E-02
(PID.TID 0000.0001) %MON dynstat_vvel_min             =  -5.4164882489900E-03
(PID.TID 0000.0001) %MON dynstat_vvel_mean            =   1.3402649942461E-07
(PID.TID 0000.0001) %MON dynstat_vvel_sd              =   2.8409676356134E-04
(PID.TID 0000.0001) %MON dynstat_vvel_del2            =   7.4257722310667E-07
(PID.TID 0000.0001) %MON dynstat_wvel_max             =   8.1054247599483E-04
(PID.TID 0000.0001) %MON dynstat_wvel_min             =  -8.7551561871583E-04
(PID.TID 0000.0001) %MON dynstat_wvel_mean            =   2.3583062150753E-10
(PID.TID 0000.0001) %MON dynstat_wvel_sd              =   1.4261421498821E-05
(PID.TID 0000.0001) %MON dynstat_wvel_del2            =   5.9232179248633E-08
(PID.TID 0000.0001) %MON dynstat_theta_max            =   1.2000000000000E+00
(PID.TID 0000.0001) %MON dynstat_theta_min            =  -1.0000000000000E+00
(PID.TID 0000.0001) %MON dynstat_theta_mean           =   5.6523595947709E-01
(PID.TID 0000.0001) %MON dynstat_theta_sd             =   8.4898505267403E-01
(PID.TID 0000.0001) %MON dynstat_theta_del2           =   2.0903172323850E-06
(PID.TID 0000.0001) %MON dynstat_salt_max             =   3.4700000000000E+01
(PID.TID 0000.0001) %MON dynstat_salt_min             =   3.4000000000000E+01
(PID.TID 0000.0001) %MON dynstat_salt_mean            =   3.4498008289308E+01
(PID.TID 0000.0001) %MON dynstat_salt_sd              =   2.7012977958725E-01
(PID.TID 0000.0001) %MON dynstat_salt_del2            =   8.2495481084878E-07
(PID.TID 0000.0001) %MON advcfl_uvel_max              =   1.9729768947901E-03
(PID.TID 0000.0001) %MON advcfl_vvel_max              =   1.4929589061583E-03
(PID.TID 0000.0001) %MON advcfl_wvel_max              =   4.3775780935791E-03
(PID.TID 0000.0001) %MON advcfl_W_hf_max              =   4.3775780935791E-03
(PID.TID 0000.0001) %MON pe_b_mean                    =  -6.8231933022002E-01
(PID.TID 0000.0001) %MON ke_max                       =   1.3476818170109E-04
(PID.TID 0000.0001) %MON ke_mean                      =   1.8032903338067E-07
(PID.TID 0000.0001) %MON ke_vol                       =   4.6182998451692E+12
(PID.TID 0000.0001) // =======================================================
(PID.TID 0000.0001) // End MONITOR dynamic field statistics
(PID.TID 0000.0001) // =======================================================
(PID.TID 0000.0001) // =======================================================
(PID.TID 0000.0001) // Begin OBCS MONITOR field statistics
(PID.TID 0000.0001) // =======================================================
(PID.TID 0000.0001) %MON obc_N_vVel_max               =   1.0667253732037E-07
(PID.TID 0000.0001) %MON obc_N_vVel_min               =   1.0667253732037E-07
(PID.TID 0000.0001) %MON obc_N_vVel_mean              =   1.0667253732037E-07
(PID.TID 0000.0001) %MON obc_N_vVel_sd                =  -8.3619255953427E-29
(PID.TID 0000.0001) %MON obc_N_vVel_Int               =   7.0403874631446E+00
(PID.TID 0000.0001) // =======================================================
(PID.TID 0000.0001) // End OBCS MONITOR field statistics
(PID.TID 0000.0001) // =======================================================
 cg2d: Sum(rhs),rhsMax =   3.00994886369668E+00  4.53046134960790E+02
(PID.TID 0000.0001)      cg2d_init_res =   2.49957731577458E-06
(PID.TID 0000.0001)      cg2d_iters(min,last) =      -1      74
(PID.TID 0000.0001)      cg2d_last_res =   7.52827196950101E-12
(PID.TID 0000.0001) // =======================================================
(PID.TID 0000.0001) // Begin MONITOR dynamic field statistics
(PID.TID 0000.0001) // =======================================================
(PID.TID 0000.0001) %MON time_tsnumber                =                   981
(PID.TID 0000.0001) %MON time_secondsf                =   9.8100000000000E+04
(PID.TID 0000.0001) %MON dynstat_eta_max              =   5.7981897947051E+00
(PID.TID 0000.0001) %MON dynstat_eta_min              =  -1.4173237828957E+01
(PID.TID 0000.0001) %MON dynstat_eta_mean             =  -2.5252698131989E+00
(PID.TID 0000.0001) %MON dynstat_eta_sd               =   4.9414233078565E+00
(PID.TID 0000.0001) %MON dynstat_eta_del2             =   1.9058420517325E-01
(PID.TID 0000.0001) %MON dynstat_uvel_max             =   4.3563313134491E-03
(PID.TID 0000.0001) %MON dynstat_uvel_min             =  -1.9779481700646E-02
(PID.TID 0000.0001) %MON dynstat_uvel_mean            =  -8.8772608138476E-10
(PID.TID 0000.0001) %MON dynstat_uvel_sd              =   5.3558105230626E-04
(PID.TID 0000.0001) %MON dynstat_uvel_del2            =   8.3728798687832E-07
(PID.TID 0000.0001) %MON dynstat_vvel_max             =   1.4963533976998E-02
(PID.TID 0000.0001) %MON dynstat_vvel_min             =  -5.4290095032972E-03
(PID.TID 0000.0001) %MON dynstat_vvel_mean            =   1.3995032650446E-07
(PID.TID 0000.0001) %MON dynstat_vvel_sd              =   2.8469691574369E-04
(PID.TID 0000.0001) %MON dynstat_vvel_del2            =   7.4415049371549E-07
(PID.TID 0000.0001) %MON dynstat_wvel_max             =   8.1266738824656E-04
(PID.TID 0000.0001) %MON dynstat_wvel_min             =  -8.7830123233687E-04
(PID.TID 0000.0001) %MON dynstat_wvel_mean            =   2.2515069596946E-10
(PID.TID 0000.0001) %MON dynstat_wvel_sd              =   1.4273180740798E-05
(PID.TID 0000.0001) %MON dynstat_wvel_del2            =   5.9350708807627E-08
(PID.TID 0000.0001) %MON dynstat_theta_max            =   1.2000000000000E+00
(PID.TID 0000.0001) %MON dynstat_theta_min            =  -1.0000000000000E+00
(PID.TID 0000.0001) %MON dynstat_theta_mean           =   5.6523545654523E-01
(PID.TID 0000.0001) %MON dynstat_theta_sd             =   8.4898484262431E-01
(PID.TID 0000.0001) %MON dynstat_theta_del2           =   2.0948274111163E-06
(PID.TID 0000.0001) %MON dynstat_salt_max             =   3.4700000000000E+01
(PID.TID 0000.0001) %MON dynstat_salt_min             =   3.4000000000000E+01
(PID.TID 0000.0001) %MON dynstat_salt_mean            =   3.4498008088737E+01
(PID.TID 0000.0001) %MON dynstat_salt_sd              =   2.7012970122405E-01
(PID.TID 0000.0001) %MON dynstat_salt_del2            =   8.2674714718013E-07
(PID.TID 0000.0001) %MON advcfl_uvel_max              =   1.9779481700646E-03
(PID.TID 0000.0001) %MON advcfl_vvel_max              =   1.4963533976998E-03
(PID.TID 0000.0001) %MON advcfl_wvel_max              =   4.3915061616843E-03
(PID.TID 0000.0001) %MON advcfl_W_hf_max              =   4.3915061616843E-03
(PID.TID 0000.0001) %MON pe_b_mean                    =  -6.8231803434049E-01
(PID.TID 0000.0001) %MON ke_max                       =   1.3560964285209E-04
(PID.TID 0000.0001) %MON ke_mean                      =   1.8125232939171E-07
(PID.TID 0000.0001) %MON ke_vol                       =   4.6182998712347E+12
(PID.TID 0000.0001) // =======================================================
(PID.TID 0000.0001) // End MONITOR dynamic field statistics
(PID.TID 0000.0001) // =======================================================
(PID.TID 0000.0001) // =======================================================
(PID.TID 0000.0001) // Begin OBCS MONITOR field statistics
(PID.TID 0000.0001) // =======================================================
(PID.TID 0000.0001) %MON obc_N_vVel_max               =   1.1324550414522E-07
(PID.TID 0000.0001) %MON obc_N_vVel_min               =   1.1324550414522E-07
(PID.TID 0000.0001) %MON obc_N_vVel_mean              =   1.1324550414522E-07
(PID.TID 0000.0001) %MON obc_N_vVel_sd                =   1.3233560403726E-14
(PID.TID 0000.0001) %MON obc_N_vVel_Int               =   7.4742032735846E+00
(PID.TID 0000.0001) // =======================================================
(PID.TID 0000.0001) // End OBCS MONITOR field statistics
(PID.TID 0000.0001) // =======================================================
 cg2d: Sum(rhs),rhsMax =   3.00994369418240E+00  4.53046124981807E+02
(PID.TID 0000.0001)      cg2d_init_res =   2.50557930199211E-06
(PID.TID 0000.0001)      cg2d_iters(min,last) =      -1      74
(PID.TID 0000.0001)      cg2d_last_res =   7.54593409695847E-12
(PID.TID 0000.0001) // =======================================================
(PID.TID 0000.0001) // Begin MONITOR dynamic field statistics
(PID.TID 0000.0001) // =======================================================
(PID.TID 0000.0001) %MON time_tsnumber                =                   982
(PID.TID 0000.0001) %MON time_secondsf                =   9.8200000000000E+04
(PID.TID 0000.0001) %MON dynstat_eta_max              =   5.7981922756163E+00
(PID.TID 0000.0001) %MON dynstat_eta_min              =  -1.4173228660841E+01
(PID.TID 0000.0001) %MON dynstat_eta_mean             =  -2.5252654204866E+00
(PID.TID 0000.0001) %MON dynstat_eta_sd               =   4.9414220276759E+00
(PID.TID 0000.0001) %MON dynstat_eta_del2             =   1.9058421757693E-01
(PID.TID 0000.0001) %MON dynstat_uvel_max             =   4.3608282465826E-03
(PID.TID 0000.0001) %MON dynstat_uvel_min             =  -1.9829269355971E-02
(PID.TID 0000.0001) %MON dynstat_uvel_mean            =  -8.3049275315559E-10
(PID.TID 0000.0001) %MON dynstat_uvel_sd              =   5.3701827477432E-04
(PID.TID 0000.0001) %MON dynstat_uvel_del2            =   8.3931857486223E-07
(PID.TID 0000.0001) %MON dynstat_vvel_max             =   1.4997518941839E-02
(PID.TID 0000.0001) %MON dynstat_vvel_min             =  -5.4415536004138E-03
(PID.TID 0000.0001) %MON dynstat_vvel_mean            =   1.4459332502100E-07
(PID.TID 0000.0001) %MON dynstat_vvel_sd              =   2.8529735431098E-04
(PID.TID 0000.0001) %MON dynstat_vvel_del2            =   7.4573861622434E-07
(PID.TID 0000.0001) %MON dynstat_wvel_max             =   8.1479607479094E-04
(PID.TID 0000.0001) %MON dynstat_wvel_min             =  -8.8109469594253E-04
(PID.TID 0000.0001) %MON dynstat_wvel_mean            =   2.1464569465339E-10
(PID.TID 0000.0001) %MON dynstat_wvel_sd              =   1.4284054060833E-05
(PID.TID 0000.0001) %MON dynstat_wvel_del2            =   5.9491276700332E-08
(PID.TID 0000.0001) %MON dynstat_theta_max            =   1.2000000000000E+00
(PID.TID 0000.0001) %MON dynstat_theta_min            =  -1.0000000000000E+00
(PID.TID 0000.0001) %MON dynstat_theta_mean           =   5.6523495263116E-01
(PID.TID 0000.0001) %MON dynstat_theta_sd             =   8.4898463209515E-01
(PID.TID 0000.0001) %MON dynstat_theta_del2           =   2.0993355954525E-06
(PID.TID 0000.0001) %MON dynstat_salt_max             =   3.4700000000000E+01
(PID.TID 0000.0001) %MON dynstat_salt_min             =   3.4000000000000E+01
(PID.TID 0000.0001) %MON dynstat_salt_mean            =   3.4498007887773E+01
(PID.TID 0000.0001) %MON dynstat_salt_sd              =   2.7012962267627E-01
(PID.TID 0000.0001) %MON dynstat_salt_del2            =   8.2854018371921E-07
(PID.TID 0000.0001) %MON advcfl_uvel_max              =   1.9829269355971E-03
(PID.TID 0000.0001) %MON advcfl_vvel_max              =   1.4997518941839E-03
(PID.TID 0000.0001) %MON advcfl_wvel_max              =   4.4054734797126E-03
(PID.TID 0000.0001) %MON advcfl_W_hf_max              =   4.4054734797126E-03
(PID.TID 0000.0001) %MON pe_b_mean                    =  -6.8231673665387E-01
(PID.TID 0000.0001) %MON ke_max                       =   1.3645566304636E-04
(PID.TID 0000.0001) %MON ke_mean                      =   1.8217974064862E-07
(PID.TID 0000.0001) %MON ke_vol                       =   4.6182998973096E+12
(PID.TID 0000.0001) // =======================================================
(PID.TID 0000.0001) // End MONITOR dynamic field statistics
(PID.TID 0000.0001) // =======================================================
(PID.TID 0000.0001) // =======================================================
(PID.TID 0000.0001) // Begin OBCS MONITOR field statistics
(PID.TID 0000.0001) // =======================================================
(PID.TID 0000.0001) %MON obc_N_vVel_max               =   1.1857296996018E-07
(PID.TID 0000.0001) %MON obc_N_vVel_min               =   1.1857296996018E-07
(PID.TID 0000.0001) %MON obc_N_vVel_mean              =   1.1857296996018E-07
(PID.TID 0000.0001) %MON obc_N_vVel_sd                =  -4.5122843778642E-28
(PID.TID 0000.0001) %MON obc_N_vVel_Int               =   7.8258160173718E+00
(PID.TID 0000.0001) // =======================================================
(PID.TID 0000.0001) // End OBCS MONITOR field statistics
(PID.TID 0000.0001) // =======================================================
 cg2d: Sum(rhs),rhsMax =   3.00993852238567E+00  4.53046114550805E+02
(PID.TID 0000.0001)      cg2d_init_res =   2.51179447332847E-06
(PID.TID 0000.0001)      cg2d_iters(min,last) =      -1      74
(PID.TID 0000.0001)      cg2d_last_res =   7.56371182419921E-12
(PID.TID 0000.0001) // =======================================================
(PID.TID 0000.0001) // Begin MONITOR dynamic field statistics
(PID.TID 0000.0001) // =======================================================
(PID.TID 0000.0001) %MON time_tsnumber                =                   983
(PID.TID 0000.0001) %MON time_secondsf                =   9.8300000000000E+04
(PID.TID 0000.0001) %MON dynstat_eta_max              =   5.7981947499243E+00
(PID.TID 0000.0001) %MON dynstat_eta_min              =  -1.4173219473696E+01
(PID.TID 0000.0001) %MON dynstat_eta_mean             =  -2.5252610233400E+00
(PID.TID 0000.0001) %MON dynstat_eta_sd               =   4.9414207451461E+00
(PID.TID 0000.0001) %MON dynstat_eta_del2             =   1.9058423000494E-01
(PID.TID 0000.0001) %MON dynstat_uvel_max             =   4.3653179815539E-03
(PID.TID 0000.0001) %MON dynstat_uvel_min             =  -1.9879131743052E-02
(PID.TID 0000.0001) %MON dynstat_uvel_mean            =  -7.7159922232635E-10
(PID.TID 0000.0001) %MON dynstat_uvel_sd              =   5.3845863922594E-04
(PID.TID 0000.0001) %MON dynstat_uvel_del2            =   8.4135452651477E-07
(PID.TID 0000.0001) %MON dynstat_vvel_max             =   1.5031543869447E-02
(PID.TID 0000.0001) %MON dynstat_vvel_min             =  -5.4541205473670E-03
(PID.TID 0000.0001) %MON dynstat_vvel_mean            =   1.4792049203661E-07
(PID.TID 0000.0001) %MON dynstat_vvel_sd              =   2.8589829072090E-04
(PID.TID 0000.0001) %MON dynstat_vvel_del2            =   7.4734134589520E-07
(PID.TID 0000.0001) %MON dynstat_wvel_max             =   8.1692853621525E-04
(PID.TID 0000.0001) %MON dynstat_wvel_min             =  -8.8389592103282E-04
(PID.TID 0000.0001) %MON dynstat_wvel_mean            =   2.0439431686066E-10
(PID.TID 0000.0001) %MON dynstat_wvel_sd              =   1.4294253189166E-05
(PID.TID 0000.0001) %MON dynstat_wvel_del2            =   5.9650039917458E-08
(PID.TID 0000.0001) %MON dynstat_theta_max            =   1.2000000000000E+00
(PID.TID 0000.0001) %MON dynstat_theta_min            =  -1.0000000000000E+00
(PID.TID 0000.0001) %MON dynstat_theta_mean           =   5.6523444773092E-01
(PID.TID 0000.0001) %MON dynstat_theta_sd             =   8.4898442109258E-01
(PID.TID 0000.0001) %MON dynstat_theta_del2           =   2.1038429021784E-06
(PID.TID 0000.0001) %MON dynstat_salt_max             =   3.4700000000000E+01
(PID.TID 0000.0001) %MON dynstat_salt_min             =   3.4000000000000E+01
(PID.TID 0000.0001) %MON dynstat_salt_mean            =   3.4498007686413E+01
(PID.TID 0000.0001) %MON dynstat_salt_sd              =   2.7012954394410E-01
(PID.TID 0000.0001) %MON dynstat_salt_del2            =   8.3033413523113E-07
(PID.TID 0000.0001) %MON advcfl_uvel_max              =   1.9879131743052E-03
(PID.TID 0000.0001) %MON advcfl_vvel_max              =   1.5031543869447E-03
(PID.TID 0000.0001) %MON advcfl_wvel_max              =   4.4194796051641E-03
(PID.TID 0000.0001) %MON advcfl_W_hf_max              =   4.4194796051641E-03
(PID.TID 0000.0001) %MON pe_b_mean                    =  -6.8231543686971E-01
(PID.TID 0000.0001) %MON ke_max                       =   1.3730626250046E-04
(PID.TID 0000.0001) %MON ke_mean                      =   1.8311134137537E-07
(PID.TID 0000.0001) %MON ke_vol                       =   4.6182999234023E+12
(PID.TID 0000.0001) // =======================================================
(PID.TID 0000.0001) // End MONITOR dynamic field statistics
(PID.TID 0000.0001) // =======================================================
(PID.TID 0000.0001) // =======================================================
(PID.TID 0000.0001) // Begin OBCS MONITOR field statistics
(PID.TID 0000.0001) // =======================================================
(PID.TID 0000.0001) %MON obc_N_vVel_max               =   1.2261504869082E-07
(PID.TID 0000.0001) %MON obc_N_vVel_min               =   1.2261504869082E-07
(PID.TID 0000.0001) %MON obc_N_vVel_mean              =   1.2261504869082E-07
(PID.TID 0000.0001) %MON obc_N_vVel_sd                =  -1.0949389364468E-27
(PID.TID 0000.0001) %MON obc_N_vVel_Int               =   8.0925932135941E+00
(PID.TID 0000.0001) // =======================================================
(PID.TID 0000.0001) // End OBCS MONITOR field statistics
(PID.TID 0000.0001) // =======================================================
 cg2d: Sum(rhs),rhsMax =   3.00993334654231E+00  4.53046103668595E+02
(PID.TID 0000.0001)      cg2d_init_res =   2.51816370583240E-06
(PID.TID 0000.0001)      cg2d_iters(min,last) =      -1      74
(PID.TID 0000.0001)      cg2d_last_res =   7.58161168783399E-12
(PID.TID 0000.0001) // =======================================================
(PID.TID 0000.0001) // Begin MONITOR dynamic field statistics
(PID.TID 0000.0001) // =======================================================
(PID.TID 0000.0001) %MON time_tsnumber                =                   984
(PID.TID 0000.0001) %MON time_secondsf                =   9.8400000000000E+04
(PID.TID 0000.0001) %MON dynstat_eta_max              =   5.7981972200433E+00
(PID.TID 0000.0001) %MON dynstat_eta_min              =  -1.4173210264954E+01
(PID.TID 0000.0001) %MON dynstat_eta_mean             =  -2.5252566202836E+00
(PID.TID 0000.0001) %MON dynstat_eta_sd               =   4.9414194597769E+00
(PID.TID 0000.0001) %MON dynstat_eta_del2             =   1.9058424245676E-01
(PID.TID 0000.0001) %MON dynstat_uvel_max             =   4.3698004864918E-03
(PID.TID 0000.0001) %MON dynstat_uvel_min             =  -1.9929068736595E-02
(PID.TID 0000.0001) %MON dynstat_uvel_mean            =  -7.1143231670272E-10
(PID.TID 0000.0001) %MON dynstat_uvel_sd              =   5.3990214605260E-04
(PID.TID 0000.0001) %MON dynstat_uvel_del2            =   8.4339584049655E-07
(PID.TID 0000.0001) %MON dynstat_vvel_max             =   1.5065608673986E-02
(PID.TID 0000.0001) %MON dynstat_vvel_min             =  -5.4667103668118E-03
(PID.TID 0000.0001) %MON dynstat_vvel_mean            =   1.4990677308158E-07
(PID.TID 0000.0001) %MON dynstat_vvel_sd              =   2.8649995014888E-04
(PID.TID 0000.0001) %MON dynstat_vvel_del2            =   7.4895807067739E-07
(PID.TID 0000.0001) %MON dynstat_wvel_max             =   8.1906477306355E-04
(PID.TID 0000.0001) %MON dynstat_wvel_min             =  -8.8670491463989E-04
(PID.TID 0000.0001) %MON dynstat_wvel_mean            =   1.9447492860673E-10
(PID.TID 0000.0001) %MON dynstat_wvel_sd              =   1.4303985915697E-05
(PID.TID 0000.0001) %MON dynstat_wvel_del2            =   5.9822221664842E-08
(PID.TID 0000.0001) %MON dynstat_theta_max            =   1.2000000000000E+00
(PID.TID 0000.0001) %MON dynstat_theta_min            =  -1.0000000000000E+00
(PID.TID 0000.0001) %MON dynstat_theta_mean           =   5.6523394184042E-01
(PID.TID 0000.0001) %MON dynstat_theta_sd             =   8.4898420961970E-01
(PID.TID 0000.0001) %MON dynstat_theta_del2           =   2.1083502416624E-06
(PID.TID 0000.0001) %MON dynstat_salt_max             =   3.4700000000000E+01
(PID.TID 0000.0001) %MON dynstat_salt_min             =   3.4000000000000E+01
(PID.TID 0000.0001) %MON dynstat_salt_mean            =   3.4498007484656E+01
(PID.TID 0000.0001) %MON dynstat_salt_sd              =   2.7012946502869E-01
(PID.TID 0000.0001) %MON dynstat_salt_del2            =   8.3212925117479E-07
(PID.TID 0000.0001) %MON advcfl_uvel_max              =   1.9929068736595E-03
(PID.TID 0000.0001) %MON advcfl_vvel_max              =   1.5065608673986E-03
(PID.TID 0000.0001) %MON advcfl_wvel_max              =   4.4335245731995E-03
(PID.TID 0000.0001) %MON advcfl_W_hf_max              =   4.4335245731995E-03
(PID.TID 0000.0001) %MON pe_b_mean                    =  -6.8231413469252E-01
(PID.TID 0000.0001) %MON ke_max                       =   1.3816146149359E-04
(PID.TID 0000.0001) %MON ke_mean                      =   1.8404721049230E-07
(PID.TID 0000.0001) %MON ke_vol                       =   4.6182999495214E+12
(PID.TID 0000.0001) // =======================================================
(PID.TID 0000.0001) // End MONITOR dynamic field statistics
(PID.TID 0000.0001) // =======================================================
(PID.TID 0000.0001) // =======================================================
(PID.TID 0000.0001) // Begin OBCS MONITOR field statistics
(PID.TID 0000.0001) // =======================================================
(PID.TID 0000.0001) %MON obc_N_vVel_max               =   1.2534149265122E-07
(PID.TID 0000.0001) %MON obc_N_vVel_min               =   1.2534149265121E-07
(PID.TID 0000.0001) %MON obc_N_vVel_mean              =   1.2534149265122E-07
(PID.TID 0000.0001) %MON obc_N_vVel_sd                =  -5.3011452830852E-28
(PID.TID 0000.0001) %MON obc_N_vVel_Int               =   8.2725385149802E+00
(PID.TID 0000.0001) // =======================================================
(PID.TID 0000.0001) // End OBCS MONITOR field statistics
(PID.TID 0000.0001) // =======================================================
 cg2d: Sum(rhs),rhsMax =   3.00992816482461E+00  4.53046092341394E+02
(PID.TID 0000.0001)      cg2d_init_res =   2.52462367265557E-06
(PID.TID 0000.0001)      cg2d_iters(min,last) =      -1      74
(PID.TID 0000.0001)      cg2d_last_res =   7.59964264119676E-12
(PID.TID 0000.0001) // =======================================================
(PID.TID 0000.0001) // Begin MONITOR dynamic field statistics
(PID.TID 0000.0001) // =======================================================
(PID.TID 0000.0001) %MON time_tsnumber                =                   985
(PID.TID 0000.0001) %MON time_secondsf                =   9.8500000000000E+04
(PID.TID 0000.0001) %MON dynstat_eta_max              =   5.7981996884140E+00
(PID.TID 0000.0001) %MON dynstat_eta_min              =  -1.4173201032036E+01
(PID.TID 0000.0001) %MON dynstat_eta_mean             =  -2.5252522098187E+00
(PID.TID 0000.0001) %MON dynstat_eta_sd               =   4.9414181710776E+00
(PID.TID 0000.0001) %MON dynstat_eta_del2             =   1.9058425493178E-01
(PID.TID 0000.0001) %MON dynstat_uvel_max             =   4.3742757300844E-03
(PID.TID 0000.0001) %MON dynstat_uvel_min             =  -1.9979080208721E-02
(PID.TID 0000.0001) %MON dynstat_uvel_mean            =  -6.5039543289289E-10
(PID.TID 0000.0001) %MON dynstat_uvel_sd              =   5.4134879552767E-04
(PID.TID 0000.0001) %MON dynstat_uvel_del2            =   8.4544251580250E-07
(PID.TID 0000.0001) %MON dynstat_vvel_max             =   1.5099713270586E-02
(PID.TID 0000.0001) %MON dynstat_vvel_min             =  -5.4793230853107E-03
(PID.TID 0000.0001) %MON dynstat_vvel_mean            =   1.5053741717003E-07
(PID.TID 0000.0001) %MON dynstat_vvel_sd              =   2.8710256932721E-04
(PID.TID 0000.0001) %MON dynstat_vvel_del2            =   7.5058792498860E-07
(PID.TID 0000.0001) %MON dynstat_wvel_max             =   8.2120478586269E-04
(PID.TID 0000.0001) %MON dynstat_wvel_min             =  -8.8952168492094E-04
(PID.TID 0000.0001) %MON dynstat_wvel_mean            =   1.8496432412721E-10
(PID.TID 0000.0001) %MON dynstat_wvel_sd              =   1.4313493341428E-05
(PID.TID 0000.0001) %MON dynstat_wvel_del2            =   6.0002749830362E-08
(PID.TID 0000.0001) %MON dynstat_theta_max            =   1.2000000000000E+00
(PID.TID 0000.0001) %MON dynstat_theta_min            =  -1.0000000000000E+00
(PID.TID 0000.0001) %MON dynstat_theta_mean           =   5.6523343495559E-01
(PID.TID 0000.0001) %MON dynstat_theta_sd             =   8.4898399767724E-01
(PID.TID 0000.0001) %MON dynstat_theta_del2           =   2.1128586286656E-06
(PID.TID 0000.0001) %MON dynstat_salt_max             =   3.4700000000000E+01
(PID.TID 0000.0001) %MON dynstat_salt_min             =   3.4000000000000E+01
(PID.TID 0000.0001) %MON dynstat_salt_mean            =   3.4498007282502E+01
(PID.TID 0000.0001) %MON dynstat_salt_sd              =   2.7012938592996E-01
(PID.TID 0000.0001) %MON dynstat_salt_del2            =   8.3392582284103E-07
(PID.TID 0000.0001) %MON advcfl_uvel_max              =   1.9979080208721E-03
(PID.TID 0000.0001) %MON advcfl_vvel_max              =   1.5099713270586E-03
(PID.TID 0000.0001) %MON advcfl_wvel_max              =   4.4476084246047E-03
(PID.TID 0000.0001) %MON advcfl_W_hf_max              =   4.4476084246047E-03
(PID.TID 0000.0001) %MON pe_b_mean                    =  -6.8231282982398E-01
(PID.TID 0000.0001) %MON ke_max                       =   1.3902128038661E-04
(PID.TID 0000.0001) %MON ke_mean                      =   1.8498743075592E-07
(PID.TID 0000.0001) %MON ke_vol                       =   4.6182999756755E+12
(PID.TID 0000.0001) // =======================================================
(PID.TID 0000.0001) // End MONITOR dynamic field statistics
(PID.TID 0000.0001) // =======================================================
(PID.TID 0000.0001) // =======================================================
(PID.TID 0000.0001) // Begin OBCS MONITOR field statistics
(PID.TID 0000.0001) // =======================================================
(PID.TID 0000.0001) %MON obc_N_vVel_max               =   1.2673202094776E-07
(PID.TID 0000.0001) %MON obc_N_vVel_min               =   1.2673202094775E-07
(PID.TID 0000.0001) %MON obc_N_vVel_mean              =   1.2673202094775E-07
(PID.TID 0000.0001) %MON obc_N_vVel_sd                =   2.1972320632907E-14
(PID.TID 0000.0001) %MON obc_N_vVel_Int               =   8.3643133825518E+00
(PID.TID 0000.0001) // =======================================================
(PID.TID 0000.0001) // End OBCS MONITOR field statistics
(PID.TID 0000.0001) // =======================================================
 cg2d: Sum(rhs),rhsMax =   3.00992297538129E+00  4.53046080577593E+02
(PID.TID 0000.0001)      cg2d_init_res =   2.53111952502339E-06
(PID.TID 0000.0001)      cg2d_iters(min,last) =      -1      74
(PID.TID 0000.0001)      cg2d_last_res =   7.61779999432639E-12
(PID.TID 0000.0001) // =======================================================
(PID.TID 0000.0001) // Begin MONITOR dynamic field statistics
(PID.TID 0000.0001) // =======================================================
(PID.TID 0000.0001) %MON time_tsnumber                =                   986
(PID.TID 0000.0001) %MON time_secondsf                =   9.8600000000000E+04
(PID.TID 0000.0001) %MON dynstat_eta_max              =   5.7982021574887E+00
(PID.TID 0000.0001) %MON dynstat_eta_min              =  -1.4173191772361E+01
(PID.TID 0000.0001) %MON dynstat_eta_mean             =  -2.5252477904388E+00
(PID.TID 0000.0001) %MON dynstat_eta_sd               =   4.9414168785678E+00
(PID.TID 0000.0001) %MON dynstat_eta_del2             =   1.9058426742951E-01
(PID.TID 0000.0001) %MON dynstat_uvel_max             =   4.3787436812046E-03
(PID.TID 0000.0001) %MON dynstat_uvel_min             =  -2.0029166031070E-02
(PID.TID 0000.0001) %MON dynstat_uvel_mean            =  -5.8890779250785E-10
(PID.TID 0000.0001) %MON dynstat_uvel_sd              =   5.4279858785293E-04
(PID.TID 0000.0001) %MON dynstat_uvel_del2            =   8.4749455185762E-07
(PID.TID 0000.0001) %MON dynstat_vvel_max             =   1.5133857575206E-02
(PID.TID 0000.0001) %MON dynstat_vvel_min             =  -5.4919587271618E-03
(PID.TID 0000.0001) %MON dynstat_vvel_mean            =   1.4980828763327E-07
(PID.TID 0000.0001) %MON dynstat_vvel_sd              =   2.8770639380345E-04
(PID.TID 0000.0001) %MON dynstat_vvel_del2            =   7.5222990778656E-07
(PID.TID 0000.0001) %MON dynstat_wvel_max             =   8.2334857512137E-04
(PID.TID 0000.0001) %MON dynstat_wvel_min             =  -8.9234623960435E-04
(PID.TID 0000.0001) %MON dynstat_wvel_mean            =   1.7593761160307E-10
(PID.TID 0000.0001) %MON dynstat_wvel_sd              =   1.4323085094189E-05
(PID.TID 0000.0001) %MON dynstat_wvel_del2            =   6.0186889111656E-08
(PID.TID 0000.0001) %MON dynstat_theta_max            =   1.2000000000000E+00
(PID.TID 0000.0001) %MON dynstat_theta_min            =  -1.0000000000000E+00
(PID.TID 0000.0001) %MON dynstat_theta_mean           =   5.6523292707286E-01
(PID.TID 0000.0001) %MON dynstat_theta_sd             =   8.4898378526081E-01
(PID.TID 0000.0001) %MON dynstat_theta_del2           =   2.1173690494232E-06
(PID.TID 0000.0001) %MON dynstat_salt_max             =   3.4700000000000E+01
(PID.TID 0000.0001) %MON dynstat_salt_min             =   3.4000000000000E+01
(PID.TID 0000.0001) %MON dynstat_salt_mean            =   3.4498007079948E+01
(PID.TID 0000.0001) %MON dynstat_salt_sd              =   2.7012930664666E-01
(PID.TID 0000.0001) %MON dynstat_salt_del2            =   8.3572413656021E-07
(PID.TID 0000.0001) %MON advcfl_uvel_max              =   2.0029166031070E-03
(PID.TID 0000.0001) %MON advcfl_vvel_max              =   1.5133857575206E-03
(PID.TID 0000.0001) %MON advcfl_wvel_max              =   4.4617311980217E-03
(PID.TID 0000.0001) %MON advcfl_W_hf_max              =   4.4617311980217E-03
(PID.TID 0000.0001) %MON pe_b_mean                    =  -6.8231152196646E-01
(PID.TID 0000.0001) %MON ke_max                       =   1.3988573961422E-04
(PID.TID 0000.0001) %MON ke_mean                      =   1.8593208803146E-07
(PID.TID 0000.0001) %MON ke_vol                       =   4.6183000018737E+12
(PID.TID 0000.0001) // =======================================================
(PID.TID 0000.0001) // End MONITOR dynamic field statistics
(PID.TID 0000.0001) // =======================================================
(PID.TID 0000.0001) // =======================================================
(PID.TID 0000.0001) // Begin OBCS MONITOR field statistics
(PID.TID 0000.0001) // =======================================================
(PID.TID 0000.0001) %MON obc_N_vVel_max               =   1.2677669906849E-07
(PID.TID 0000.0001) %MON obc_N_vVel_min               =   1.2677669906848E-07
(PID.TID 0000.0001) %MON obc_N_vVel_mean              =   1.2677669906849E-07
(PID.TID 0000.0001) %MON obc_N_vVel_sd                =  -3.0923347484664E-28
(PID.TID 0000.0001) %MON obc_N_vVel_Int               =   8.3672621385200E+00
(PID.TID 0000.0001) // =======================================================
(PID.TID 0000.0001) // End OBCS MONITOR field statistics
(PID.TID 0000.0001) // =======================================================
 cg2d: Sum(rhs),rhsMax =   3.00991777634117E+00  4.53046068388859E+02
(PID.TID 0000.0001)      cg2d_init_res =   2.53760318066789E-06
(PID.TID 0000.0001)      cg2d_iters(min,last) =      -1      74
(PID.TID 0000.0001)      cg2d_last_res =   7.63610669316068E-12
(PID.TID 0000.0001) // =======================================================
(PID.TID 0000.0001) // Begin MONITOR dynamic field statistics
(PID.TID 0000.0001) // =======================================================
(PID.TID 0000.0001) %MON time_tsnumber                =                   987
(PID.TID 0000.0001) %MON time_secondsf                =   9.8700000000000E+04
(PID.TID 0000.0001) %MON dynstat_eta_max              =   5.7982046297100E+00
(PID.TID 0000.0001) %MON dynstat_eta_min              =  -1.4173182483347E+01
(PID.TID 0000.0001) %MON dynstat_eta_mean             =  -2.5252433606391E+00
(PID.TID 0000.0001) %MON dynstat_eta_sd               =   4.9414155817786E+00
(PID.TID 0000.0001) %MON dynstat_eta_del2             =   1.9058427994957E-01
(PID.TID 0000.0001) %MON dynstat_uvel_max             =   4.3832043091605E-03
(PID.TID 0000.0001) %MON dynstat_uvel_min             =  -2.0079326074812E-02
(PID.TID 0000.0001) %MON dynstat_uvel_mean            =  -5.2739929252202E-10
(PID.TID 0000.0001) %MON dynstat_uvel_sd              =   5.4425152320470E-04
(PID.TID 0000.0001) %MON dynstat_uvel_del2            =   8.4955194862502E-07
(PID.TID 0000.0001) %MON dynstat_vvel_max             =   1.5168041504824E-02
(PID.TID 0000.0001) %MON dynstat_vvel_min             =  -5.5046173149371E-03
(PID.TID 0000.0001) %MON dynstat_vvel_mean            =   1.4772609326934E-07
(PID.TID 0000.0001) %MON dynstat_vvel_sd              =   2.8831167405987E-04
(PID.TID 0000.0001) %MON dynstat_vvel_del2            =   7.5388299007428E-07
(PID.TID 0000.0001) %MON dynstat_wvel_max             =   8.2549614131249E-04
(PID.TID 0000.0001) %MON dynstat_wvel_min             =  -8.9517858644879E-04
(PID.TID 0000.0001) %MON dynstat_wvel_mean            =   1.6746714315613E-10
(PID.TID 0000.0001) %MON dynstat_wvel_sd              =   1.4333166479251E-05
(PID.TID 0000.0001) %MON dynstat_wvel_del2            =   6.0370792993508E-08
(PID.TID 0000.0001) %MON dynstat_theta_max            =   1.2000000000000E+00
(PID.TID 0000.0001) %MON dynstat_theta_min            =  -1.0000000000000E+00
(PID.TID 0000.0001) %MON dynstat_theta_mean           =   5.6523241818897E-01
(PID.TID 0000.0001) %MON dynstat_theta_sd             =   8.4898357236647E-01
(PID.TID 0000.0001) %MON dynstat_theta_del2           =   2.1218823820885E-06
(PID.TID 0000.0001) %MON dynstat_salt_max             =   3.4700000000000E+01
(PID.TID 0000.0001) %MON dynstat_salt_min             =   3.4000000000000E+01
(PID.TID 0000.0001) %MON dynstat_salt_mean            =   3.4498006876994E+01
(PID.TID 0000.0001) %MON dynstat_salt_sd              =   2.7012922717733E-01
(PID.TID 0000.0001) %MON dynstat_salt_del2            =   8.3752443253207E-07
(PID.TID 0000.0001) %MON advcfl_uvel_max              =   2.0079326074812E-03
(PID.TID 0000.0001) %MON advcfl_vvel_max              =   1.5168041504824E-03
(PID.TID 0000.0001) %MON advcfl_wvel_max              =   4.4758929322439E-03
(PID.TID 0000.0001) %MON advcfl_W_hf_max              =   4.4758929322439E-03
(PID.TID 0000.0001) %MON pe_b_mean                    =  -6.8231021082479E-01
(PID.TID 0000.0001) %MON ke_max                       =   1.4075485968680E-04
(PID.TID 0000.0001) %MON ke_mean                      =   1.8688127022738E-07
(PID.TID 0000.0001) %MON ke_vol                       =   4.6183000281248E+12
(PID.TID 0000.0001) // =======================================================
(PID.TID 0000.0001) // End MONITOR dynamic field statistics
(PID.TID 0000.0001) // =======================================================
(PID.TID 0000.0001) // =======================================================
(PID.TID 0000.0001) // Begin OBCS MONITOR field statistics
(PID.TID 0000.0001) // =======================================================
(PID.TID 0000.0001) %MON obc_N_vVel_max               =   1.2547623668167E-07
(PID.TID 0000.0001) %MON obc_N_vVel_min               =   1.2547623668167E-07
(PID.TID 0000.0001) %MON obc_N_vVel_mean              =   1.2547623668167E-07
(PID.TID 0000.0001) %MON obc_N_vVel_sd                =   6.6465186896884E-15
(PID.TID 0000.0001) %MON obc_N_vVel_Int               =   8.2814316209902E+00
(PID.TID 0000.0001) // =======================================================
(PID.TID 0000.0001) // End OBCS MONITOR field statistics
(PID.TID 0000.0001) // =======================================================
 cg2d: Sum(rhs),rhsMax =   3.00991256582475E+00  4.53046055790197E+02
(PID.TID 0000.0001)      cg2d_init_res =   2.54403102394059E-06
(PID.TID 0000.0001)      cg2d_iters(min,last) =      -1      74
(PID.TID 0000.0001)      cg2d_last_res =   7.65457867236562E-12
(PID.TID 0000.0001) // =======================================================
(PID.TID 0000.0001) // Begin MONITOR dynamic field statistics
(PID.TID 0000.0001) // =======================================================
(PID.TID 0000.0001) %MON time_tsnumber                =                   988
(PID.TID 0000.0001) %MON time_secondsf                =   9.8800000000000E+04
(PID.TID 0000.0001) %MON dynstat_eta_max              =   5.7982071074949E+00
(PID.TID 0000.0001) %MON dynstat_eta_min              =  -1.4173173162466E+01
(PID.TID 0000.0001) %MON dynstat_eta_mean             =  -2.5252389189264E+00
(PID.TID 0000.0001) %MON dynstat_eta_sd               =   4.9414142802576E+00
(PID.TID 0000.0001) %MON dynstat_eta_del2             =   1.9058429249172E-01
(PID.TID 0000.0001) %MON dynstat_uvel_max             =   4.3876575837221E-03
(PID.TID 0000.0001) %MON dynstat_uvel_min             =  -2.0129560210475E-02
(PID.TID 0000.0001) %MON dynstat_uvel_mean            =  -4.6630119958591E-10
(PID.TID 0000.0001) %MON dynstat_uvel_sd              =   5.4570760177472E-04
(PID.TID 0000.0001) %MON dynstat_uvel_del2            =   8.5161470665996E-07
(PID.TID 0000.0001) %MON dynstat_vvel_max             =   1.5202264977457E-02
(PID.TID 0000.0001) %MON dynstat_vvel_min             =  -5.5172988699086E-03
(PID.TID 0000.0001) %MON dynstat_vvel_mean            =   1.4430853654599E-07
(PID.TID 0000.0001) %MON dynstat_vvel_sd              =   2.8891866012324E-04
(PID.TID 0000.0001) %MON dynstat_vvel_del2            =   7.5554619972035E-07
(PID.TID 0000.0001) %MON dynstat_wvel_max             =   8.2764748488110E-04
(PID.TID 0000.0001) %MON dynstat_wvel_min             =  -8.9801873319151E-04
(PID.TID 0000.0001) %MON dynstat_wvel_mean            =   1.5962256533983E-10
(PID.TID 0000.0001) %MON dynstat_wvel_sd              =   1.4344252666891E-05
(PID.TID 0000.0001) %MON dynstat_wvel_del2            =   6.0551916688699E-08
(PID.TID 0000.0001) %MON dynstat_theta_max            =   1.2000000000000E+00
(PID.TID 0000.0001) %MON dynstat_theta_min            =  -1.0000000000000E+00
(PID.TID 0000.0001) %MON dynstat_theta_mean           =   5.6523190830074E-01
(PID.TID 0000.0001) %MON dynstat_theta_sd             =   8.4898335899103E-01
(PID.TID 0000.0001) %MON dynstat_theta_del2           =   2.1263993415887E-06
(PID.TID 0000.0001) %MON dynstat_salt_max             =   3.4700000000000E+01
(PID.TID 0000.0001) %MON dynstat_salt_min             =   3.4000000000000E+01
(PID.TID 0000.0001) %MON dynstat_salt_mean            =   3.4498006673639E+01
(PID.TID 0000.0001) %MON dynstat_salt_sd              =   2.7012914752117E-01
(PID.TID 0000.0001) %MON dynstat_salt_del2            =   8.3932692119239E-07
(PID.TID 0000.0001) %MON advcfl_uvel_max              =   2.0129560210475E-03
(PID.TID 0000.0001) %MON advcfl_vvel_max              =   1.5202264977457E-03
(PID.TID 0000.0001) %MON advcfl_wvel_max              =   4.4900936659575E-03
(PID.TID 0000.0001) %MON advcfl_W_hf_max              =   4.4900936659575E-03
(PID.TID 0000.0001) %MON pe_b_mean                    =  -6.8230889610825E-01
(PID.TID 0000.0001) %MON ke_max                       =   1.4162866118552E-04
(PID.TID 0000.0001) %MON ke_mean                      =   1.8783506577795E-07
(PID.TID 0000.0001) %MON ke_vol                       =   4.6183000544378E+12
(PID.TID 0000.0001) // =======================================================
(PID.TID 0000.0001) // End MONITOR dynamic field statistics
(PID.TID 0000.0001) // =======================================================
(PID.TID 0000.0001) // =======================================================
(PID.TID 0000.0001) // Begin OBCS MONITOR field statistics
(PID.TID 0000.0001) // =======================================================
(PID.TID 0000.0001) %MON obc_N_vVel_max               =   1.2284213275920E-07
(PID.TID 0000.0001) %MON obc_N_vVel_min               =   1.2284213275920E-07
(PID.TID 0000.0001) %MON obc_N_vVel_mean              =   1.2284213275920E-07
(PID.TID 0000.0001) %MON obc_N_vVel_sd                =   3.5880649343632E-14
(PID.TID 0000.0001) %MON obc_N_vVel_Int               =   8.1075807621071E+00
(PID.TID 0000.0001) // =======================================================
(PID.TID 0000.0001) // End OBCS MONITOR field statistics
(PID.TID 0000.0001) // =======================================================
 cg2d: Sum(rhs),rhsMax =   3.00990734196124E+00  4.53046042799936E+02
(PID.TID 0000.0001)      cg2d_init_res =   2.55038496937380E-06
(PID.TID 0000.0001)      cg2d_iters(min,last) =      -1      74
(PID.TID 0000.0001)      cg2d_last_res =   7.67327378655473E-12
(PID.TID 0000.0001) // =======================================================
(PID.TID 0000.0001) // Begin MONITOR dynamic field statistics
(PID.TID 0000.0001) // =======================================================
(PID.TID 0000.0001) %MON time_tsnumber                =                   989
(PID.TID 0000.0001) %MON time_secondsf                =   9.8900000000000E+04
(PID.TID 0000.0001) %MON dynstat_eta_max              =   5.7982095932072E+00
(PID.TID 0000.0001) %MON dynstat_eta_min              =  -1.4173163807236E+01
(PID.TID 0000.0001) %MON dynstat_eta_mean             =  -2.5252344638334E+00
(PID.TID 0000.0001) %MON dynstat_eta_sd               =   4.9414129735713E+00
(PID.TID 0000.0001) %MON dynstat_eta_del2             =   1.9058430505586E-01
(PID.TID 0000.0001) %MON dynstat_uvel_max             =   4.3921034749790E-03
(PID.TID 0000.0001) %MON dynstat_uvel_min             =  -2.0179868310895E-02
(PID.TID 0000.0001) %MON dynstat_uvel_mean            =  -4.0604429342684E-10
(PID.TID 0000.0001) %MON dynstat_uvel_sd              =   5.4716682382070E-04
(PID.TID 0000.0001) %MON dynstat_uvel_del2            =   8.5368282729911E-07
(PID.TID 0000.0001) %MON dynstat_vvel_max             =   1.5236527912085E-02
(PID.TID 0000.0001) %MON dynstat_vvel_min             =  -5.5300034119981E-03
(PID.TID 0000.0001) %MON dynstat_vvel_mean            =   1.3958438641261E-07
(PID.TID 0000.0001) %MON dynstat_vvel_sd              =   2.8952759445041E-04
(PID.TID 0000.0001) %MON dynstat_vvel_del2            =   7.5721867535879E-07
(PID.TID 0000.0001) %MON dynstat_wvel_max             =   8.2980260625584E-04
(PID.TID 0000.0001) %MON dynstat_wvel_min             =  -9.0086668804066E-04
(PID.TID 0000.0001) %MON dynstat_wvel_mean            =   1.5246956647159E-10
(PID.TID 0000.0001) %MON dynstat_wvel_sd              =   1.4356966466863E-05
(PID.TID 0000.0001) %MON dynstat_wvel_del2            =   6.0729250225218E-08
(PID.TID 0000.0001) %MON dynstat_theta_max            =   1.2000000000000E+00
(PID.TID 0000.0001) %MON dynstat_theta_min            =  -1.0000000000000E+00
(PID.TID 0000.0001) %MON dynstat_theta_mean           =   5.6523139740536E-01
(PID.TID 0000.0001) %MON dynstat_theta_sd             =   8.4898314513568E-01
(PID.TID 0000.0001) %MON dynstat_theta_del2           =   2.1309206249032E-06
(PID.TID 0000.0001) %MON dynstat_salt_max             =   3.4700000000000E+01
(PID.TID 0000.0001) %MON dynstat_salt_min             =   3.4000000000000E+01
(PID.TID 0000.0001) %MON dynstat_salt_mean            =   3.4498006469881E+01
(PID.TID 0000.0001) %MON dynstat_salt_sd              =   2.7012906767832E-01
(PID.TID 0000.0001) %MON dynstat_salt_del2            =   8.4113175938362E-07
(PID.TID 0000.0001) %MON advcfl_uvel_max              =   2.0179868310895E-03
(PID.TID 0000.0001) %MON advcfl_vvel_max              =   1.5236527912085E-03
(PID.TID 0000.0001) %MON advcfl_wvel_max              =   4.5043334402033E-03
(PID.TID 0000.0001) %MON advcfl_W_hf_max              =   4.5043334402033E-03
(PID.TID 0000.0001) %MON pe_b_mean                    =  -6.8230757753324E-01
(PID.TID 0000.0001) %MON ke_max                       =   1.4250716476618E-04
(PID.TID 0000.0001) %MON ke_mean                      =   1.8879356161295E-07
(PID.TID 0000.0001) %MON ke_vol                       =   4.6183000808216E+12
(PID.TID 0000.0001) // =======================================================
(PID.TID 0000.0001) // End MONITOR dynamic field statistics
(PID.TID 0000.0001) // =======================================================
(PID.TID 0000.0001) // =======================================================
(PID.TID 0000.0001) // Begin OBCS MONITOR field statistics
(PID.TID 0000.0001) // =======================================================
(PID.TID 0000.0001) %MON obc_N_vVel_max               =   1.1889683403560E-07
(PID.TID 0000.0001) %MON obc_N_vVel_min               =   1.1889683403560E-07
(PID.TID 0000.0001) %MON obc_N_vVel_mean              =   1.1889683403560E-07
(PID.TID 0000.0001) %MON obc_N_vVel_sd                =  -1.3757734187054E-27
(PID.TID 0000.0001) %MON obc_N_vVel_Int               =   7.8471910463498E+00
(PID.TID 0000.0001) // =======================================================
(PID.TID 0000.0001) // End OBCS MONITOR field statistics
(PID.TID 0000.0001) // =======================================================
 cg2d: Sum(rhs),rhsMax =   3.00990210290248E+00  4.53046029439572E+02
(PID.TID 0000.0001)      cg2d_init_res =   2.55665895881178E-06
(PID.TID 0000.0001)      cg2d_iters(min,last) =      -1      74
(PID.TID 0000.0001)      cg2d_last_res =   7.69224422428615E-12
(PID.TID 0000.0001) // =======================================================
(PID.TID 0000.0001) // Begin MONITOR dynamic field statistics
(PID.TID 0000.0001) // =======================================================
(PID.TID 0000.0001) %MON time_tsnumber                =                   990
(PID.TID 0000.0001) %MON time_secondsf                =   9.9000000000000E+04
(PID.TID 0000.0001) %MON dynstat_eta_max              =   5.7982120891534E+00
(PID.TID 0000.0001) %MON dynstat_eta_min              =  -1.4173154415259E+01
(PID.TID 0000.0001) %MON dynstat_eta_mean             =  -2.5252299939292E+00
(PID.TID 0000.0001) %MON dynstat_eta_sd               =   4.9414116613080E+00
(PID.TID 0000.0001) %MON dynstat_eta_del2             =   1.9058431764184E-01
(PID.TID 0000.0001) %MON dynstat_uvel_max             =   4.3965419535557E-03
(PID.TID 0000.0001) %MON dynstat_uvel_min             =  -2.0230250245441E-02
(PID.TID 0000.0001) %MON dynstat_uvel_mean            =  -3.4705949756349E-10
(PID.TID 0000.0001) %MON dynstat_uvel_sd              =   5.4862918971339E-04
(PID.TID 0000.0001) %MON dynstat_uvel_del2            =   8.5575631281373E-07
(PID.TID 0000.0001) %MON dynstat_vvel_max             =   1.5270830228743E-02
(PID.TID 0000.0001) %MON dynstat_vvel_min             =  -5.5427309599239E-03
(PID.TID 0000.0001) %MON dynstat_vvel_mean            =   1.3359345747874E-07
(PID.TID 0000.0001) %MON dynstat_vvel_sd              =   2.9013870318401E-04
(PID.TID 0000.0001) %MON dynstat_vvel_del2            =   7.5889968450545E-07
(PID.TID 0000.0001) %MON dynstat_wvel_max             =   8.3196150583334E-04
(PID.TID 0000.0001) %MON dynstat_wvel_min             =  -9.0372245875438E-04
(PID.TID 0000.0001) %MON dynstat_wvel_mean            =   1.4606973100510E-10
(PID.TID 0000.0001) %MON dynstat_wvel_sd              =   1.4372018100330E-05
(PID.TID 0000.0001) %MON dynstat_wvel_del2            =   6.0903351361299E-08
(PID.TID 0000.0001) %MON dynstat_theta_max            =   1.2000000000000E+00
(PID.TID 0000.0001) %MON dynstat_theta_min            =  -1.0000000000000E+00
(PID.TID 0000.0001) %MON dynstat_theta_mean           =   5.6523088550027E-01
(PID.TID 0000.0001) %MON dynstat_theta_sd             =   8.4898293080478E-01
(PID.TID 0000.0001) %MON dynstat_theta_del2           =   2.1354464068584E-06
(PID.TID 0000.0001) %MON dynstat_salt_max             =   3.4700000000000E+01
(PID.TID 0000.0001) %MON dynstat_salt_min             =   3.4000000000000E+01
(PID.TID 0000.0001) %MON dynstat_salt_mean            =   3.4498006265720E+01
(PID.TID 0000.0001) %MON dynstat_salt_sd              =   2.7012898765011E-01
(PID.TID 0000.0001) %MON dynstat_salt_del2            =   8.4293905460777E-07
(PID.TID 0000.0001) %MON advcfl_uvel_max              =   2.0230250245441E-03
(PID.TID 0000.0001) %MON advcfl_vvel_max              =   1.5270830228743E-03
(PID.TID 0000.0001) %MON advcfl_wvel_max              =   4.5186122937719E-03
(PID.TID 0000.0001) %MON advcfl_W_hf_max              =   4.5186122937719E-03
(PID.TID 0000.0001) %MON pe_b_mean                    =  -6.8230625482534E-01
(PID.TID 0000.0001) %MON ke_max                       =   1.4339039115653E-04
(PID.TID 0000.0001) %MON ke_mean                      =   1.8975684062743E-07
(PID.TID 0000.0001) %MON ke_vol                       =   4.6183001072848E+12
(PID.TID 0000.0001) // =======================================================
(PID.TID 0000.0001) // End MONITOR dynamic field statistics
(PID.TID 0000.0001) // =======================================================
(PID.TID 0000.0001) // =======================================================
(PID.TID 0000.0001) // Begin OBCS MONITOR field statistics
(PID.TID 0000.0001) // =======================================================
(PID.TID 0000.0001) %MON obc_N_vVel_max               =   1.1367373587688E-07
(PID.TID 0000.0001) %MON obc_N_vVel_min               =   1.1367373587688E-07
(PID.TID 0000.0001) %MON obc_N_vVel_mean              =   1.1367373587688E-07
(PID.TID 0000.0001) %MON obc_N_vVel_sd                =   3.1174936010075E-14
(PID.TID 0000.0001) %MON obc_N_vVel_Int               =   7.5024665678740E+00
(PID.TID 0000.0001) // =======================================================
(PID.TID 0000.0001) // End OBCS MONITOR field statistics
(PID.TID 0000.0001) // =======================================================
 cg2d: Sum(rhs),rhsMax =   3.00989684683553E+00  4.53046015734076E+02
(PID.TID 0000.0001)      cg2d_init_res =   2.56287430502692E-06
(PID.TID 0000.0001)      cg2d_iters(min,last) =      -1      74
(PID.TID 0000.0001)      cg2d_last_res =   7.71156739382170E-12
(PID.TID 0000.0001) // =======================================================
(PID.TID 0000.0001) // Begin MONITOR dynamic field statistics
(PID.TID 0000.0001) // =======================================================
(PID.TID 0000.0001) %MON time_tsnumber                =                   991
(PID.TID 0000.0001) %MON time_secondsf                =   9.9100000000000E+04
(PID.TID 0000.0001) %MON dynstat_eta_max              =   5.7982145975388E+00
(PID.TID 0000.0001) %MON dynstat_eta_min              =  -1.4173144984238E+01
(PID.TID 0000.0001) %MON dynstat_eta_mean             =  -2.5252255078322E+00
(PID.TID 0000.0001) %MON dynstat_eta_sd               =   4.9414103430852E+00
(PID.TID 0000.0001) %MON dynstat_eta_del2             =   1.9058433024971E-01
(PID.TID 0000.0001) %MON dynstat_uvel_max             =   4.4009729982335E-03
(PID.TID 0000.0001) %MON dynstat_uvel_min             =  -2.0280705882723E-02
(PID.TID 0000.0001) %MON dynstat_uvel_mean            =  -2.8977661929658E-10
(PID.TID 0000.0001) %MON dynstat_uvel_sd              =   5.5009469998144E-04
(PID.TID 0000.0001) %MON dynstat_uvel_del2            =   8.5783516651752E-07
(PID.TID 0000.0001) %MON dynstat_vvel_max             =   1.5305171841287E-02
(PID.TID 0000.0001) %MON dynstat_vvel_min             =  -5.5554815311076E-03
(PID.TID 0000.0001) %MON dynstat_vvel_mean            =   1.2638649559406E-07
(PID.TID 0000.0001) %MON dynstat_vvel_sd              =   2.9075218609671E-04
(PID.TID 0000.0001) %MON dynstat_vvel_del2            =   7.6058860624311E-07
(PID.TID 0000.0001) %MON dynstat_wvel_max             =   8.3412418266127E-04
(PID.TID 0000.0001) %MON dynstat_wvel_min             =  -9.0658605312988E-04
(PID.TID 0000.0001) %MON dynstat_wvel_mean            =   1.4047958162775E-10
(PID.TID 0000.0001) %MON dynstat_wvel_sd              =   1.4390167475421E-05
(PID.TID 0000.0001) %MON dynstat_wvel_del2            =   6.1076179442590E-08
(PID.TID 0000.0001) %MON dynstat_theta_max            =   1.2000000000000E+00
(PID.TID 0000.0001) %MON dynstat_theta_min            =  -1.0000000000000E+00
(PID.TID 0000.0001) %MON dynstat_theta_mean           =   5.6523037258319E-01
(PID.TID 0000.0001) %MON dynstat_theta_sd             =   8.4898271600185E-01
(PID.TID 0000.0001) %MON dynstat_theta_del2           =   2.1399768481744E-06
(PID.TID 0000.0001) %MON dynstat_salt_max             =   3.4700000000000E+01
(PID.TID 0000.0001) %MON dynstat_salt_min             =   3.4000000000000E+01
(PID.TID 0000.0001) %MON dynstat_salt_mean            =   3.4498006061155E+01
(PID.TID 0000.0001) %MON dynstat_salt_sd              =   2.7012890743777E-01
(PID.TID 0000.0001) %MON dynstat_salt_del2            =   8.4474888308400E-07
(PID.TID 0000.0001) %MON advcfl_uvel_max              =   2.0280705882723E-03
(PID.TID 0000.0001) %MON advcfl_vvel_max              =   1.5305171841287E-03
(PID.TID 0000.0001) %MON advcfl_wvel_max              =   4.5329302656494E-03
(PID.TID 0000.0001) %MON advcfl_W_hf_max              =   4.5329302656494E-03
(PID.TID 0000.0001) %MON pe_b_mean                    =  -6.8230492772194E-01
(PID.TID 0000.0001) %MON ke_max                       =   1.4427836115655E-04
(PID.TID 0000.0001) %MON ke_mean                      =   1.9072497873750E-07
(PID.TID 0000.0001) %MON ke_vol                       =   4.6183001338361E+12
(PID.TID 0000.0001) // =======================================================
(PID.TID 0000.0001) // End MONITOR dynamic field statistics
(PID.TID 0000.0001) // =======================================================
(PID.TID 0000.0001) // =======================================================
(PID.TID 0000.0001) // Begin OBCS MONITOR field statistics
(PID.TID 0000.0001) // =======================================================
(PID.TID 0000.0001) %MON obc_N_vVel_max               =   1.0721713298017E-07
(PID.TID 0000.0001) %MON obc_N_vVel_min               =   1.0721713298017E-07
(PID.TID 0000.0001) %MON obc_N_vVel_mean              =   1.0721713298017E-07
(PID.TID 0000.0001) %MON obc_N_vVel_sd                =   1.6616296724221E-14
(PID.TID 0000.0001) %MON obc_N_vVel_Int               =   7.0763307766909E+00
(PID.TID 0000.0001) // =======================================================
(PID.TID 0000.0001) // End OBCS MONITOR field statistics
(PID.TID 0000.0001) // =======================================================
 cg2d: Sum(rhs),rhsMax =   3.00989157199970E+00  4.53046001711514E+02
(PID.TID 0000.0001)      cg2d_init_res =   2.56906429861614E-06
(PID.TID 0000.0001)      cg2d_iters(min,last) =      -1      74
(PID.TID 0000.0001)      cg2d_last_res =   7.73130111322014E-12
(PID.TID 0000.0001) // =======================================================
(PID.TID 0000.0001) // Begin MONITOR dynamic field statistics
(PID.TID 0000.0001) // =======================================================
(PID.TID 0000.0001) %MON time_tsnumber                =                   992
(PID.TID 0000.0001) %MON time_secondsf                =   9.9200000000000E+04
(PID.TID 0000.0001) %MON dynstat_eta_max              =   5.7982171204718E+00
(PID.TID 0000.0001) %MON dynstat_eta_min              =  -1.4173135511990E+01
(PID.TID 0000.0001) %MON dynstat_eta_mean             =  -2.5252210042216E+00
(PID.TID 0000.0001) %MON dynstat_eta_sd               =   4.9414090185507E+00
(PID.TID 0000.0001) %MON dynstat_eta_del2             =   1.9058434287965E-01
(PID.TID 0000.0001) %MON dynstat_uvel_max             =   4.4053965808022E-03
(PID.TID 0000.0001) %MON dynstat_uvel_min             =  -2.0331235090768E-02
(PID.TID 0000.0001) %MON dynstat_uvel_mean            =  -2.3462205479402E-10
(PID.TID 0000.0001) %MON dynstat_uvel_sd              =   5.5156335534240E-04
(PID.TID 0000.0001) %MON dynstat_uvel_del2            =   8.5991939291817E-07
(PID.TID 0000.0001) %MON dynstat_vvel_max             =   1.5339552671523E-02
(PID.TID 0000.0001) %MON dynstat_vvel_min             =  -5.5682551417213E-03
(PID.TID 0000.0001) %MON dynstat_vvel_mean            =   1.1802496176771E-07
(PID.TID 0000.0001) %MON dynstat_vvel_sd              =   2.9136820577525E-04
(PID.TID 0000.0001) %MON dynstat_vvel_del2            =   7.6228488258407E-07
(PID.TID 0000.0001) %MON dynstat_wvel_max             =   8.3629063710240E-04
(PID.TID 0000.0001) %MON dynstat_wvel_min             =  -9.0945747940144E-04
(PID.TID 0000.0001) %MON dynstat_wvel_mean            =   1.3575011381909E-10
(PID.TID 0000.0001) %MON dynstat_wvel_sd              =   1.4412171589166E-05
(PID.TID 0000.0001) %MON dynstat_wvel_del2            =   6.1250751643613E-08
(PID.TID 0000.0001) %MON dynstat_theta_max            =   1.2000000000000E+00
(PID.TID 0000.0001) %MON dynstat_theta_min            =  -1.0000000000000E+00
(PID.TID 0000.0001) %MON dynstat_theta_mean           =   5.6522985865216E-01
(PID.TID 0000.0001) %MON dynstat_theta_sd             =   8.4898250073065E-01
(PID.TID 0000.0001) %MON dynstat_theta_del2           =   2.1445121029177E-06
(PID.TID 0000.0001) %MON dynstat_salt_max             =   3.4700000000000E+01
(PID.TID 0000.0001) %MON dynstat_salt_min             =   3.4000000000000E+01
(PID.TID 0000.0001) %MON dynstat_salt_mean            =   3.4498005856184E+01
(PID.TID 0000.0001) %MON dynstat_salt_sd              =   2.7012882704239E-01
(PID.TID 0000.0001) %MON dynstat_salt_del2            =   8.4656131192147E-07
(PID.TID 0000.0001) %MON advcfl_uvel_max              =   2.0331235090768E-03
(PID.TID 0000.0001) %MON advcfl_vvel_max              =   1.5339552671523E-03
(PID.TID 0000.0001) %MON advcfl_wvel_max              =   4.5472873970072E-03
(PID.TID 0000.0001) %MON advcfl_W_hf_max              =   4.5472873970072E-03
(PID.TID 0000.0001) %MON pe_b_mean                    =  -6.8230359597443E-01
(PID.TID 0000.0001) %MON ke_max                       =   1.4517109563747E-04
(PID.TID 0000.0001) %MON ke_mean                      =   1.9169804166969E-07
(PID.TID 0000.0001) %MON ke_vol                       =   4.6183001604835E+12
(PID.TID 0000.0001) // =======================================================
(PID.TID 0000.0001) // End MONITOR dynamic field statistics
(PID.TID 0000.0001) // =======================================================
(PID.TID 0000.0001) // =======================================================
(PID.TID 0000.0001) // Begin OBCS MONITOR field statistics
(PID.TID 0000.0001) // =======================================================
(PID.TID 0000.0001) %MON obc_N_vVel_max               =   9.9582036460360E-08
(PID.TID 0000.0001) %MON obc_N_vVel_min               =   9.9582036460357E-08
(PID.TID 0000.0001) %MON obc_N_vVel_mean              =   9.9582036460360E-08
(PID.TID 0000.0001) %MON obc_N_vVel_sd                =  -6.0426745339930E-28
(PID.TID 0000.0001) %MON obc_N_vVel_Int               =   6.5724144063837E+00
(PID.TID 0000.0001) // =======================================================
(PID.TID 0000.0001) // End OBCS MONITOR field statistics
(PID.TID 0000.0001) // =======================================================
 cg2d: Sum(rhs),rhsMax =   3.00988627669988E+00  4.53045987403095E+02
(PID.TID 0000.0001)      cg2d_init_res =   2.57527282857676E-06
(PID.TID 0000.0001)      cg2d_iters(min,last) =      -1      74
(PID.TID 0000.0001)      cg2d_last_res =   7.75150744645535E-12
(PID.TID 0000.0001) // =======================================================
(PID.TID 0000.0001) // Begin MONITOR dynamic field statistics
(PID.TID 0000.0001) // =======================================================
(PID.TID 0000.0001) %MON time_tsnumber                =                   993
(PID.TID 0000.0001) %MON time_secondsf                =   9.9300000000000E+04
(PID.TID 0000.0001) %MON dynstat_eta_max              =   5.7982196599319E+00
(PID.TID 0000.0001) %MON dynstat_eta_min              =  -1.4173125996483E+01
(PID.TID 0000.0001) %MON dynstat_eta_mean             =  -2.5252164818491E+00
(PID.TID 0000.0001) %MON dynstat_eta_sd               =   4.9414076873888E+00
(PID.TID 0000.0001) %MON dynstat_eta_del2             =   1.9058435553206E-01
(PID.TID 0000.0001) %MON dynstat_uvel_max             =   4.4098126731971E-03
(PID.TID 0000.0001) %MON dynstat_uvel_min             =  -2.0382740044638E-02
(PID.TID 0000.0001) %MON dynstat_uvel_mean            =  -1.8201557299581E-10
(PID.TID 0000.0001) %MON dynstat_uvel_sd              =   5.5303515674326E-04
(PID.TID 0000.0001) %MON dynstat_uvel_del2            =   8.6200899786064E-07
(PID.TID 0000.0001) %MON dynstat_vvel_max             =   1.5373972642436E-02
(PID.TID 0000.0001) %MON dynstat_vvel_min             =  -5.5810518067281E-03
(PID.TID 0000.0001) %MON dynstat_vvel_mean            =   1.0858072719129E-07
(PID.TID 0000.0001) %MON dynstat_vvel_sd              =   2.9198687677587E-04
(PID.TID 0000.0001) %MON dynstat_vvel_del2            =   7.6398794682256E-07
(PID.TID 0000.0001) %MON dynstat_wvel_max             =   8.3846086947582E-04
(PID.TID 0000.0001) %MON dynstat_wvel_min             =  -9.1233674534367E-04
(PID.TID 0000.0001) %MON dynstat_wvel_mean            =   1.3192655934673E-10
(PID.TID 0000.0001) %MON dynstat_wvel_sd              =   1.4438721665154E-05
(PID.TID 0000.0001) %MON dynstat_wvel_del2            =   6.1430661699358E-08
(PID.TID 0000.0001) %MON dynstat_theta_max            =   1.2000000000000E+00
(PID.TID 0000.0001) %MON dynstat_theta_min            =  -1.0000000000000E+00
(PID.TID 0000.0001) %MON dynstat_theta_mean           =   5.6522934370555E-01
(PID.TID 0000.0001) %MON dynstat_theta_sd             =   8.4898228499187E-01
(PID.TID 0000.0001) %MON dynstat_theta_del2           =   2.1490523914670E-06
(PID.TID 0000.0001) %MON dynstat_salt_max             =   3.4700000000000E+01
(PID.TID 0000.0001) %MON dynstat_salt_min             =   3.4000000000000E+01
(PID.TID 0000.0001) %MON dynstat_salt_mean            =   3.4498005650808E+01
(PID.TID 0000.0001) %MON dynstat_salt_sd              =   2.7012874646406E-01
(PID.TID 0000.0001) %MON dynstat_salt_del2            =   8.4837641578564E-07
(PID.TID 0000.0001) %MON advcfl_uvel_max              =   2.0382740044638E-03
(PID.TID 0000.0001) %MON advcfl_vvel_max              =   1.5373972642436E-03
(PID.TID 0000.0001) %MON advcfl_wvel_max              =   4.5616837267183E-03
(PID.TID 0000.0001) %MON advcfl_W_hf_max              =   4.5616837267183E-03
(PID.TID 0000.0001) %MON pe_b_mean                    =  -6.8230225935049E-01
(PID.TID 0000.0001) %MON ke_max                       =   1.4606861554297E-04
(PID.TID 0000.0001) %MON ke_mean                      =   1.9267608170675E-07
(PID.TID 0000.0001) %MON ke_vol                       =   4.6183001872349E+12
(PID.TID 0000.0001) // =======================================================
(PID.TID 0000.0001) // End MONITOR dynamic field statistics
(PID.TID 0000.0001) // =======================================================
(PID.TID 0000.0001) // =======================================================
(PID.TID 0000.0001) // Begin OBCS MONITOR field statistics
(PID.TID 0000.0001) // =======================================================
(PID.TID 0000.0001) %MON obc_N_vVel_max               =   9.0833890575935E-08
(PID.TID 0000.0001) %MON obc_N_vVel_min               =   9.0833890575932E-08
(PID.TID 0000.0001) %MON obc_N_vVel_mean              =   9.0833890575935E-08
(PID.TID 0000.0001) %MON obc_N_vVel_sd                =  -8.4092572496560E-28
(PID.TID 0000.0001) %MON obc_N_vVel_Int               =   5.9950367780117E+00
(PID.TID 0000.0001) // =======================================================
(PID.TID 0000.0001) // End OBCS MONITOR field statistics
(PID.TID 0000.0001) // =======================================================
 cg2d: Sum(rhs),rhsMax =   3.00988095932354E+00  4.53045972842638E+02
(PID.TID 0000.0001)      cg2d_init_res =   2.58155074365356E-06
(PID.TID 0000.0001)      cg2d_iters(min,last) =      -1      74
(PID.TID 0000.0001)      cg2d_last_res =   7.77222278499928E-12
(PID.TID 0000.0001) // =======================================================
(PID.TID 0000.0001) // Begin MONITOR dynamic field statistics
(PID.TID 0000.0001) // =======================================================
(PID.TID 0000.0001) %MON time_tsnumber                =                   994
(PID.TID 0000.0001) %MON time_secondsf                =   9.9400000000000E+04
(PID.TID 0000.0001) %MON dynstat_eta_max              =   5.7982222177550E+00
(PID.TID 0000.0001) %MON dynstat_eta_min              =  -1.4173116435832E+01
(PID.TID 0000.0001) %MON dynstat_eta_mean             =  -2.5252119395505E+00
(PID.TID 0000.0001) %MON dynstat_eta_sd               =   4.9414063493208E+00
(PID.TID 0000.0001) %MON dynstat_eta_del2             =   1.9058436820746E-01
(PID.TID 0000.0001) %MON dynstat_uvel_max             =   4.4142212478810E-03
(PID.TID 0000.0001) %MON dynstat_uvel_min             =  -2.0438936337124E-02
(PID.TID 0000.0001) %MON dynstat_uvel_mean            =  -1.3236446706731E-10
(PID.TID 0000.0001) %MON dynstat_uvel_sd              =   5.5451010538283E-04
(PID.TID 0000.0001) %MON dynstat_uvel_del2            =   8.6410398860387E-07
(PID.TID 0000.0001) %MON dynstat_vvel_max             =   1.5408431677928E-02
(PID.TID 0000.0001) %MON dynstat_vvel_min             =  -5.5938715399044E-03
(PID.TID 0000.0001) %MON dynstat_vvel_mean            =   9.8135668166662E-08
(PID.TID 0000.0001) %MON dynstat_vvel_sd              =   2.9260825569659E-04
(PID.TID 0000.0001) %MON dynstat_vvel_del2            =   7.6569714001577E-07
(PID.TID 0000.0001) %MON dynstat_wvel_max             =   8.4063488008064E-04
(PID.TID 0000.0001) %MON dynstat_wvel_min             =  -9.1522385872221E-04
(PID.TID 0000.0001) %MON dynstat_wvel_mean            =   1.2904785591027E-10
(PID.TID 0000.0001) %MON dynstat_wvel_sd              =   1.4470376160047E-05
(PID.TID 0000.0001) %MON dynstat_wvel_del2            =   6.1619516152619E-08
(PID.TID 0000.0001) %MON dynstat_theta_max            =   1.2000000000000E+00
(PID.TID 0000.0001) %MON dynstat_theta_min            =  -1.0000000000000E+00
(PID.TID 0000.0001) %MON dynstat_theta_mean           =   5.6522882774201E-01
(PID.TID 0000.0001) %MON dynstat_theta_sd             =   8.4898206878389E-01
(PID.TID 0000.0001) %MON dynstat_theta_del2           =   2.1535981265868E-06
(PID.TID 0000.0001) %MON dynstat_salt_max             =   3.4700000000000E+01
(PID.TID 0000.0001) %MON dynstat_salt_min             =   3.4000000000000E+01
(PID.TID 0000.0001) %MON dynstat_salt_mean            =   3.4498005445027E+01
(PID.TID 0000.0001) %MON dynstat_salt_sd              =   2.7012866570216E-01
(PID.TID 0000.0001) %MON dynstat_salt_del2            =   8.5019432299198E-07
(PID.TID 0000.0001) %MON advcfl_uvel_max              =   2.0438936337124E-03
(PID.TID 0000.0001) %MON advcfl_vvel_max              =   1.5408431677928E-03
(PID.TID 0000.0001) %MON advcfl_wvel_max              =   4.5761192936110E-03
(PID.TID 0000.0001) %MON advcfl_W_hf_max              =   4.5761192936110E-03
(PID.TID 0000.0001) %MON pe_b_mean                    =  -6.8230091763628E-01
(PID.TID 0000.0001) %MON ke_max                       =   1.4697094188631E-04
(PID.TID 0000.0001) %MON ke_mean                      =   1.9365913465054E-07
(PID.TID 0000.0001) %MON ke_vol                       =   4.6183002140978E+12
(PID.TID 0000.0001) // =======================================================
(PID.TID 0000.0001) // End MONITOR dynamic field statistics
(PID.TID 0000.0001) // =======================================================
(PID.TID 0000.0001) // =======================================================
(PID.TID 0000.0001) // Begin OBCS MONITOR field statistics
(PID.TID 0000.0001) // =======================================================
(PID.TID 0000.0001) %MON obc_N_vVel_max               =   8.1048237665208E-08
(PID.TID 0000.0001) %MON obc_N_vVel_min               =   8.1048237665207E-08
(PID.TID 0000.0001) %MON obc_N_vVel_mean              =   8.1048237665208E-08
(PID.TID 0000.0001) %MON obc_N_vVel_sd                =   6.2172489379009E-15
(PID.TID 0000.0001) %MON obc_N_vVel_Int               =   5.3491836859037E+00
(PID.TID 0000.0001) // =======================================================
(PID.TID 0000.0001) // End OBCS MONITOR field statistics
(PID.TID 0000.0001) // =======================================================
 cg2d: Sum(rhs),rhsMax =   3.00987561835313E+00  4.53045958066752E+02
(PID.TID 0000.0001)      cg2d_init_res =   2.58794994744007E-06
(PID.TID 0000.0001)      cg2d_iters(min,last) =      -1      74
(PID.TID 0000.0001)      cg2d_last_res =   7.79349613802874E-12
(PID.TID 0000.0001) // =======================================================
(PID.TID 0000.0001) // Begin MONITOR dynamic field statistics
(PID.TID 0000.0001) // =======================================================
(PID.TID 0000.0001) %MON time_tsnumber                =                   995
(PID.TID 0000.0001) %MON time_secondsf                =   9.9500000000000E+04
(PID.TID 0000.0001) %MON dynstat_eta_max              =   5.7982247956098E+00
(PID.TID 0000.0001) %MON dynstat_eta_min              =  -1.4173106828345E+01
(PID.TID 0000.0001) %MON dynstat_eta_mean             =  -2.5252073762566E+00
(PID.TID 0000.0001) %MON dynstat_eta_sd               =   4.9414050041087E+00
(PID.TID 0000.0001) %MON dynstat_eta_del2             =   1.9058438090651E-01
(PID.TID 0000.0001) %MON dynstat_uvel_max             =   4.4186222779174E-03
(PID.TID 0000.0001) %MON dynstat_uvel_min             =  -2.0495233698961E-02
(PID.TID 0000.0001) %MON dynstat_uvel_mean            =  -8.6059934474128E-11
(PID.TID 0000.0001) %MON dynstat_uvel_sd              =   5.5598820273305E-04
(PID.TID 0000.0001) %MON dynstat_uvel_del2            =   8.6620437387630E-07
(PID.TID 0000.0001) %MON dynstat_vvel_max             =   1.5442929702864E-02
(PID.TID 0000.0001) %MON dynstat_vvel_min             =  -5.6067143539469E-03
(PID.TID 0000.0001) %MON dynstat_vvel_mean            =   8.6781165335583E-08
(PID.TID 0000.0001) %MON dynstat_vvel_sd              =   2.9323233301527E-04
(PID.TID 0000.0001) %MON dynstat_vvel_del2            =   7.6741162825265E-07
(PID.TID 0000.0001) %MON dynstat_wvel_max             =   8.4281266918136E-04
(PID.TID 0000.0001) %MON dynstat_wvel_min             =  -9.1811882730936E-04
(PID.TID 0000.0001) %MON dynstat_wvel_mean            =   1.2714624175005E-10
(PID.TID 0000.0001) %MON dynstat_wvel_sd              =   1.4507496646218E-05
(PID.TID 0000.0001) %MON dynstat_wvel_del2            =   6.1820352617511E-08
(PID.TID 0000.0001) %MON dynstat_theta_max            =   1.2000000000000E+00
(PID.TID 0000.0001) %MON dynstat_theta_min            =  -1.0000000000000E+00
(PID.TID 0000.0001) %MON dynstat_theta_mean           =   5.6522831076061E-01
(PID.TID 0000.0001) %MON dynstat_theta_sd             =   8.4898185210369E-01
(PID.TID 0000.0001) %MON dynstat_theta_del2           =   2.1581505281211E-06
(PID.TID 0000.0001) %MON dynstat_salt_max             =   3.4700000000000E+01
(PID.TID 0000.0001) %MON dynstat_salt_min             =   3.4000000000000E+01
(PID.TID 0000.0001) %MON dynstat_salt_mean            =   3.4498005238838E+01
(PID.TID 0000.0001) %MON dynstat_salt_sd              =   2.7012858475583E-01
(PID.TID 0000.0001) %MON dynstat_salt_del2            =   8.5201543851578E-07
(PID.TID 0000.0001) %MON advcfl_uvel_max              =   2.0495233698961E-03
(PID.TID 0000.0001) %MON advcfl_vvel_max              =   1.5442929702864E-03
(PID.TID 0000.0001) %MON advcfl_wvel_max              =   4.5905941365468E-03
(PID.TID 0000.0001) %MON advcfl_W_hf_max              =   4.5905941365468E-03
(PID.TID 0000.0001) %MON pe_b_mean                    =  -6.8229957063846E-01
(PID.TID 0000.0001) %MON ke_max                       =   1.4787809575200E-04
(PID.TID 0000.0001) %MON ke_mean                      =   1.9464721726321E-07
(PID.TID 0000.0001) %MON ke_vol                       =   4.6183002410791E+12
(PID.TID 0000.0001) // =======================================================
(PID.TID 0000.0001) // End MONITOR dynamic field statistics
(PID.TID 0000.0001) // =======================================================
(PID.TID 0000.0001) // =======================================================
(PID.TID 0000.0001) // Begin OBCS MONITOR field statistics
(PID.TID 0000.0001) // =======================================================
(PID.TID 0000.0001) %MON obc_N_vVel_max               =   7.0310270099651E-08
(PID.TID 0000.0001) %MON obc_N_vVel_min               =   7.0310270099650E-08
(PID.TID 0000.0001) %MON obc_N_vVel_mean              =   7.0310270099650E-08
(PID.TID 0000.0001) %MON obc_N_vVel_sd                =   1.4458497151626E-14
(PID.TID 0000.0001) %MON obc_N_vVel_Int               =   4.6404778265769E+00
(PID.TID 0000.0001) // =======================================================
(PID.TID 0000.0001) // End OBCS MONITOR field statistics
(PID.TID 0000.0001) // =======================================================
 cg2d: Sum(rhs),rhsMax =   3.00987025238026E+00  4.53045943114499E+02
(PID.TID 0000.0001)      cg2d_init_res =   2.59452735940240E-06
(PID.TID 0000.0001)      cg2d_iters(min,last) =      -1      74
(PID.TID 0000.0001)      cg2d_last_res =   7.81528150721340E-12
(PID.TID 0000.0001) // =======================================================
(PID.TID 0000.0001) // Begin MONITOR dynamic field statistics
(PID.TID 0000.0001) // =======================================================
(PID.TID 0000.0001) %MON time_tsnumber                =                   996
(PID.TID 0000.0001) %MON time_secondsf                =   9.9600000000000E+04
(PID.TID 0000.0001) %MON dynstat_eta_max              =   5.7982273949899E+00
(PID.TID 0000.0001) %MON dynstat_eta_min              =  -1.4173097172507E+01
(PID.TID 0000.0001) %MON dynstat_eta_mean             =  -2.5252027910035E+00
(PID.TID 0000.0001) %MON dynstat_eta_sd               =   4.9414036515576E+00
(PID.TID 0000.0001) %MON dynstat_eta_del2             =   1.9058439363006E-01
(PID.TID 0000.0001) %MON dynstat_uvel_max             =   4.4230157366805E-03
(PID.TID 0000.0001) %MON dynstat_uvel_min             =  -2.0551632031975E-02
(PID.TID 0000.0001) %MON dynstat_uvel_mean            =  -4.3473673930666E-11
(PID.TID 0000.0001) %MON dynstat_uvel_sd              =   5.5746945057871E-04
(PID.TID 0000.0001) %MON dynstat_uvel_del2            =   8.6831016446334E-07
(PID.TID 0000.0001) %MON dynstat_vvel_max             =   1.5477466642950E-02
(PID.TID 0000.0001) %MON dynstat_vvel_min             =  -5.6195802603964E-03
(PID.TID 0000.0001) %MON dynstat_vvel_mean            =   7.4617492692663E-08
(PID.TID 0000.0001) %MON dynstat_vvel_sd              =   2.9385902759657E-04
(PID.TID 0000.0001) %MON dynstat_vvel_del2            =   7.6913033326933E-07
(PID.TID 0000.0001) %MON dynstat_wvel_max             =   8.4499423702770E-04
(PID.TID 0000.0001) %MON dynstat_wvel_min             =  -9.2102165886705E-04
(PID.TID 0000.0001) %MON dynstat_wvel_mean            =   1.2624601706478E-10
(PID.TID 0000.0001) %MON dynstat_wvel_sd              =   1.4550193711431E-05
(PID.TID 0000.0001) %MON dynstat_wvel_del2            =   6.2035107736906E-08
(PID.TID 0000.0001) %MON dynstat_theta_max            =   1.2000000000000E+00
(PID.TID 0000.0001) %MON dynstat_theta_min            =  -1.0000000000000E+00
(PID.TID 0000.0001) %MON dynstat_theta_mean           =   5.6522779276073E-01
(PID.TID 0000.0001) %MON dynstat_theta_sd             =   8.4898163494315E-01
(PID.TID 0000.0001) %MON dynstat_theta_del2           =   2.1627101496392E-06
(PID.TID 0000.0001) %MON dynstat_salt_max             =   3.4700000000000E+01
(PID.TID 0000.0001) %MON dynstat_salt_min             =   3.4000000000000E+01
(PID.TID 0000.0001) %MON dynstat_salt_mean            =   3.4498005032243E+01
(PID.TID 0000.0001) %MON dynstat_salt_sd              =   2.7012850362232E-01
(PID.TID 0000.0001) %MON dynstat_salt_del2            =   8.5383984308927E-07
(PID.TID 0000.0001) %MON advcfl_uvel_max              =   2.0551632031975E-03
(PID.TID 0000.0001) %MON advcfl_vvel_max              =   1.5477466642950E-03
(PID.TID 0000.0001) %MON advcfl_wvel_max              =   4.6051082943352E-03
(PID.TID 0000.0001) %MON advcfl_W_hf_max              =   4.6051082943352E-03
(PID.TID 0000.0001) %MON pe_b_mean                    =  -6.8229821818593E-01
(PID.TID 0000.0001) %MON ke_max                       =   1.4879009829218E-04
(PID.TID 0000.0001) %MON ke_mean                      =   1.9564032546948E-07
(PID.TID 0000.0001) %MON ke_vol                       =   4.6183002681850E+12
(PID.TID 0000.0001) // =======================================================
(PID.TID 0000.0001) // End MONITOR dynamic field statistics
(PID.TID 0000.0001) // =======================================================
(PID.TID 0000.0001) // =======================================================
(PID.TID 0000.0001) // Begin OBCS MONITOR field statistics
(PID.TID 0000.0001) // =======================================================
(PID.TID 0000.0001) %MON obc_N_vVel_max               =   5.8714334496632E-08
(PID.TID 0000.0001) %MON obc_N_vVel_min               =   5.8714334496631E-08
(PID.TID 0000.0001) %MON obc_N_vVel_mean              =   5.8714334496632E-08
(PID.TID 0000.0001) %MON obc_N_vVel_sd                =  -2.6979042958559E-28
(PID.TID 0000.0001) %MON obc_N_vVel_Int               =   3.8751460767777E+00
(PID.TID 0000.0001) // =======================================================
(PID.TID 0000.0001) // End OBCS MONITOR field statistics
(PID.TID 0000.0001) // =======================================================
 cg2d: Sum(rhs),rhsMax =   3.00986486011609E+00  4.53045928027348E+02
(PID.TID 0000.0001)      cg2d_init_res =   2.60128375414183E-06
(PID.TID 0000.0001)      cg2d_iters(min,last) =      -1      74
(PID.TID 0000.0001)      cg2d_last_res =   7.83762994878611E-12
(PID.TID 0000.0001) // =======================================================
(PID.TID 0000.0001) // Begin MONITOR dynamic field statistics
(PID.TID 0000.0001) // =======================================================
(PID.TID 0000.0001) %MON time_tsnumber                =                   997
(PID.TID 0000.0001) %MON time_secondsf                =   9.9700000000000E+04
(PID.TID 0000.0001) %MON dynstat_eta_max              =   5.7982300171987E+00
(PID.TID 0000.0001) %MON dynstat_eta_min              =  -1.4173087467031E+01
(PID.TID 0000.0001) %MON dynstat_eta_mean             =  -2.5251981829411E+00
(PID.TID 0000.0001) %MON dynstat_eta_sd               =   4.9414022915135E+00
(PID.TID 0000.0001) %MON dynstat_eta_del2             =   1.9058440637880E-01
(PID.TID 0000.0001) %MON dynstat_uvel_max             =   4.4274015981536E-03
(PID.TID 0000.0001) %MON dynstat_uvel_min             =  -2.0608131236905E-02
(PID.TID 0000.0001) %MON dynstat_uvel_mean            =  -4.9504999117139E-12
(PID.TID 0000.0001) %MON dynstat_uvel_sd              =   5.5895385095550E-04
(PID.TID 0000.0001) %MON dynstat_uvel_del2            =   8.7042137218300E-07
(PID.TID 0000.0001) %MON dynstat_vvel_max             =   1.5512042424634E-02
(PID.TID 0000.0001) %MON dynstat_vvel_min             =  -5.6324692698961E-03
(PID.TID 0000.0001) %MON dynstat_vvel_mean            =   6.1753125469242E-08
(PID.TID 0000.0001) %MON dynstat_vvel_sd              =   2.9448818473087E-04
(PID.TID 0000.0001) %MON dynstat_vvel_del2            =   7.7085188756935E-07
(PID.TID 0000.0001) %MON dynstat_wvel_max             =   8.4717958382320E-04
(PID.TID 0000.0001) %MON dynstat_wvel_min             =  -9.2393236112542E-04
(PID.TID 0000.0001) %MON dynstat_wvel_mean            =   1.2636406989147E-10
(PID.TID 0000.0001) %MON dynstat_wvel_sd              =   1.4598289232887E-05
(PID.TID 0000.0001) %MON dynstat_wvel_del2            =   6.2264197611358E-08
(PID.TID 0000.0001) %MON dynstat_theta_max            =   1.2000000000000E+00
(PID.TID 0000.0001) %MON dynstat_theta_min            =  -1.0000000000000E+00
(PID.TID 0000.0001) %MON dynstat_theta_mean           =   5.6522727374200E-01
(PID.TID 0000.0001) %MON dynstat_theta_sd             =   8.4898141729731E-01
(PID.TID 0000.0001) %MON dynstat_theta_del2           =   2.1672784537074E-06
(PID.TID 0000.0001) %MON dynstat_salt_max             =   3.4700000000000E+01
(PID.TID 0000.0001) %MON dynstat_salt_min             =   3.4000000000000E+01
(PID.TID 0000.0001) %MON dynstat_salt_mean            =   3.4498004825241E+01
(PID.TID 0000.0001) %MON dynstat_salt_sd              =   2.7012842230012E-01
(PID.TID 0000.0001) %MON dynstat_salt_del2            =   8.5566791658236E-07
(PID.TID 0000.0001) %MON advcfl_uvel_max              =   2.0608131236905E-03
(PID.TID 0000.0001) %MON advcfl_vvel_max              =   1.5512042424634E-03
(PID.TID 0000.0001) %MON advcfl_wvel_max              =   4.6196618056271E-03
(PID.TID 0000.0001) %MON advcfl_W_hf_max              =   4.6196618056271E-03
(PID.TID 0000.0001) %MON pe_b_mean                    =  -6.8229686013144E-01
(PID.TID 0000.0001) %MON ke_max                       =   1.4970697072941E-04
(PID.TID 0000.0001) %MON ke_mean                      =   1.9663843352047E-07
(PID.TID 0000.0001) %MON ke_vol                       =   4.6183002954214E+12
(PID.TID 0000.0001) // =======================================================
(PID.TID 0000.0001) // End MONITOR dynamic field statistics
(PID.TID 0000.0001) // =======================================================
(PID.TID 0000.0001) // =======================================================
(PID.TID 0000.0001) // Begin OBCS MONITOR field statistics
(PID.TID 0000.0001) // =======================================================
(PID.TID 0000.0001) %MON obc_N_vVel_max               =   4.6363229558991E-08
(PID.TID 0000.0001) %MON obc_N_vVel_min               =   4.6363229558991E-08
(PID.TID 0000.0001) %MON obc_N_vVel_mean              =   4.6363229558991E-08
(PID.TID 0000.0001) %MON obc_N_vVel_sd                =   8.9481496344179E-15
(PID.TID 0000.0001) %MON obc_N_vVel_Int               =   3.0599731508934E+00
(PID.TID 0000.0001) // =======================================================
(PID.TID 0000.0001) // End OBCS MONITOR field statistics
(PID.TID 0000.0001) // =======================================================
 cg2d: Sum(rhs),rhsMax =   3.00985944040498E+00  4.53045912848517E+02
(PID.TID 0000.0001)      cg2d_init_res =   2.60824609861312E-06
(PID.TID 0000.0001)      cg2d_iters(min,last) =      -1      74
(PID.TID 0000.0001)      cg2d_last_res =   7.86045733047114E-12
(PID.TID 0000.0001) // =======================================================
(PID.TID 0000.0001) // Begin MONITOR dynamic field statistics
(PID.TID 0000.0001) // =======================================================
(PID.TID 0000.0001) %MON time_tsnumber                =                   998
(PID.TID 0000.0001) %MON time_secondsf                =   9.9800000000000E+04
(PID.TID 0000.0001) %MON dynstat_eta_max              =   5.7982326633313E+00
(PID.TID 0000.0001) %MON dynstat_eta_min              =  -1.4173077710843E+01
(PID.TID 0000.0001) %MON dynstat_eta_mean             =  -2.5251935513407E+00
(PID.TID 0000.0001) %MON dynstat_eta_sd               =   4.9414009238698E+00
(PID.TID 0000.0001) %MON dynstat_eta_del2             =   1.9058441915367E-01
(PID.TID 0000.0001) %MON dynstat_uvel_max             =   4.4317798368887E-03
(PID.TID 0000.0001) %MON dynstat_uvel_min             =  -2.0664731213167E-02
(PID.TID 0000.0001) %MON dynstat_uvel_mean            =   2.9199261619556E-11
(PID.TID 0000.0001) %MON dynstat_uvel_sd              =   5.6044140617335E-04
(PID.TID 0000.0001) %MON dynstat_uvel_del2            =   8.7253801030686E-07
(PID.TID 0000.0001) %MON dynstat_vvel_max             =   1.5546656975101E-02
(PID.TID 0000.0001) %MON dynstat_vvel_min             =  -5.6453813920383E-03
(PID.TID 0000.0001) %MON dynstat_vvel_mean            =   4.8303949750638E-08
(PID.TID 0000.0001) %MON dynstat_vvel_sd              =   2.9511957802645E-04
(PID.TID 0000.0001) %MON dynstat_vvel_del2            =   7.7257462333682E-07
(PID.TID 0000.0001) %MON dynstat_wvel_max             =   8.4936870977064E-04
(PID.TID 0000.0001) %MON dynstat_wvel_min             =  -9.2685094180268E-04
(PID.TID 0000.0001) %MON dynstat_wvel_mean            =   1.2750983645331E-10
(PID.TID 0000.0001) %MON dynstat_wvel_sd              =   1.4651299775498E-05
(PID.TID 0000.0001) %MON dynstat_wvel_del2            =   6.2506260886465E-08
(PID.TID 0000.0001) %MON dynstat_theta_max            =   1.2000000000000E+00
(PID.TID 0000.0001) %MON dynstat_theta_min            =  -1.0000000000000E+00
(PID.TID 0000.0001) %MON dynstat_theta_mean           =   5.6522675370412E-01
(PID.TID 0000.0001) %MON dynstat_theta_sd             =   8.4898119916132E-01
(PID.TID 0000.0001) %MON dynstat_theta_del2           =   2.1718574254833E-06
(PID.TID 0000.0001) %MON dynstat_salt_max             =   3.4700000000000E+01
(PID.TID 0000.0001) %MON dynstat_salt_min             =   3.4000000000000E+01
(PID.TID 0000.0001) %MON dynstat_salt_mean            =   3.4498004617832E+01
(PID.TID 0000.0001) %MON dynstat_salt_sd              =   2.7012834078756E-01
(PID.TID 0000.0001) %MON dynstat_salt_del2            =   8.5750024148277E-07
(PID.TID 0000.0001) %MON advcfl_uvel_max              =   2.0664731213167E-03
(PID.TID 0000.0001) %MON advcfl_vvel_max              =   1.5546656975101E-03
(PID.TID 0000.0001) %MON advcfl_wvel_max              =   4.6342547090134E-03
(PID.TID 0000.0001) %MON advcfl_W_hf_max              =   4.6342547090134E-03
(PID.TID 0000.0001) %MON pe_b_mean                    =  -6.8229549635296E-01
(PID.TID 0000.0001) %MON ke_max                       =   1.5062873435354E-04
(PID.TID 0000.0001) %MON ke_mean                      =   1.9764149433132E-07
(PID.TID 0000.0001) %MON ke_vol                       =   4.6183003227933E+12
(PID.TID 0000.0001) // =======================================================
(PID.TID 0000.0001) // End MONITOR dynamic field statistics
(PID.TID 0000.0001) // =======================================================
(PID.TID 0000.0001) // =======================================================
(PID.TID 0000.0001) // Begin OBCS MONITOR field statistics
(PID.TID 0000.0001) // =======================================================
(PID.TID 0000.0001) %MON obc_N_vVel_max               =   3.3367434696092E-08
(PID.TID 0000.0001) %MON obc_N_vVel_min               =   3.3367434696092E-08
(PID.TID 0000.0001) %MON obc_N_vVel_mean              =   3.3367434696092E-08
(PID.TID 0000.0001) %MON obc_N_vVel_sd                =   5.0242958677881E-15
(PID.TID 0000.0001) %MON obc_N_vVel_Int               =   2.2022506899421E+00
(PID.TID 0000.0001) // =======================================================
(PID.TID 0000.0001) // End OBCS MONITOR field statistics
(PID.TID 0000.0001) // =======================================================
 cg2d: Sum(rhs),rhsMax =   3.00985399223665E+00  4.53045897622910E+02
(PID.TID 0000.0001)      cg2d_init_res =   2.61541267438048E-06
(PID.TID 0000.0001)      cg2d_iters(min,last) =      -1      74
(PID.TID 0000.0001)      cg2d_last_res =   7.88368924025775E-12
(PID.TID 0000.0001) // =======================================================
(PID.TID 0000.0001) // Begin MONITOR dynamic field statistics
(PID.TID 0000.0001) // =======================================================
(PID.TID 0000.0001) %MON time_tsnumber                =                   999
(PID.TID 0000.0001) %MON time_secondsf                =   9.9900000000000E+04
(PID.TID 0000.0001) %MON dynstat_eta_max              =   5.7982353342664E+00
(PID.TID 0000.0001) %MON dynstat_eta_min              =  -1.4173067903112E+01
(PID.TID 0000.0001) %MON dynstat_eta_mean             =  -2.5251888956051E+00
(PID.TID 0000.0001) %MON dynstat_eta_sd               =   4.9413995485716E+00
(PID.TID 0000.0001) %MON dynstat_eta_del2             =   1.9058443195588E-01
(PID.TID 0000.0001) %MON dynstat_uvel_max             =   4.4375606452984E-03
(PID.TID 0000.0001) %MON dynstat_uvel_min             =  -2.0721431859031E-02
(PID.TID 0000.0001) %MON dynstat_uvel_mean            =   5.8697283547450E-11
(PID.TID 0000.0001) %MON dynstat_uvel_sd              =   5.6193211879661E-04
(PID.TID 0000.0001) %MON dynstat_uvel_del2            =   8.7466009365064E-07
(PID.TID 0000.0001) %MON dynstat_vvel_max             =   1.5581310222058E-02
(PID.TID 0000.0001) %MON dynstat_vvel_min             =  -5.6583166356248E-03
(PID.TID 0000.0001) %MON dynstat_vvel_mean            =   3.4392380301121E-08
(PID.TID 0000.0001) %MON dynstat_vvel_sd              =   2.9575291546929E-04
(PID.TID 0000.0001) %MON dynstat_vvel_del2            =   7.7429659984490E-07
(PID.TID 0000.0001) %MON dynstat_wvel_max             =   8.5156161502555E-04
(PID.TID 0000.0001) %MON dynstat_wvel_min             =  -9.2977740857109E-04
(PID.TID 0000.0001) %MON dynstat_wvel_mean            =   1.2968364786945E-10
(PID.TID 0000.0001) %MON dynstat_wvel_sd              =   1.4708443799221E-05
(PID.TID 0000.0001) %MON dynstat_wvel_del2            =   6.2758095965927E-08
(PID.TID 0000.0001) %MON dynstat_theta_max            =   1.2000000000000E+00
(PID.TID 0000.0001) %MON dynstat_theta_min            =  -1.0000000000000E+00
(PID.TID 0000.0001) %MON dynstat_theta_mean           =   5.6522623264712E-01
(PID.TID 0000.0001) %MON dynstat_theta_sd             =   8.4898098053005E-01
(PID.TID 0000.0001) %MON dynstat_theta_del2           =   2.1764493993363E-06
(PID.TID 0000.0001) %MON dynstat_salt_max             =   3.4700000000000E+01
(PID.TID 0000.0001) %MON dynstat_salt_min             =   3.4000000000000E+01
(PID.TID 0000.0001) %MON dynstat_salt_mean            =   3.4498004410015E+01
(PID.TID 0000.0001) %MON dynstat_salt_sd              =   2.7012825908296E-01
(PID.TID 0000.0001) %MON dynstat_salt_del2            =   8.5933737042110E-07
(PID.TID 0000.0001) %MON advcfl_uvel_max              =   2.0721431859031E-03
(PID.TID 0000.0001) %MON advcfl_vvel_max              =   1.5581310222058E-03
(PID.TID 0000.0001) %MON advcfl_wvel_max              =   4.6488870428555E-03
(PID.TID 0000.0001) %MON advcfl_W_hf_max              =   4.6488870428555E-03
(PID.TID 0000.0001) %MON pe_b_mean                    =  -6.8229412675560E-01
(PID.TID 0000.0001) %MON ke_max                       =   1.5155541052260E-04
(PID.TID 0000.0001) %MON ke_mean                      =   1.9864944103217E-07
(PID.TID 0000.0001) %MON ke_vol                       =   4.6183003503050E+12
(PID.TID 0000.0001) // =======================================================
(PID.TID 0000.0001) // End MONITOR dynamic field statistics
(PID.TID 0000.0001) // =======================================================
(PID.TID 0000.0001) // =======================================================
(PID.TID 0000.0001) // Begin OBCS MONITOR field statistics
(PID.TID 0000.0001) // =======================================================
(PID.TID 0000.0001) %MON obc_N_vVel_max               =   1.9844405579203E-08
(PID.TID 0000.0001) %MON obc_N_vVel_min               =   1.9844405579202E-08
(PID.TID 0000.0001) %MON obc_N_vVel_mean              =   1.9844405579202E-08
(PID.TID 0000.0001) %MON obc_N_vVel_sd                =   3.2784493031975E-15
(PID.TID 0000.0001) %MON obc_N_vVel_Int               =   1.3097307682274E+00
(PID.TID 0000.0001) // =======================================================
(PID.TID 0000.0001) // End OBCS MONITOR field statistics
(PID.TID 0000.0001) // =======================================================
 cg2d: Sum(rhs),rhsMax =   3.00984851475518E+00  4.53045882396692E+02
(PID.TID 0000.0001)      cg2d_init_res =   2.62273718054126E-06
(PID.TID 0000.0001)      cg2d_iters(min,last) =      -1      74
(PID.TID 0000.0001)      cg2d_last_res =   7.90724693743615E-12
(PID.TID 0000.0001) // =======================================================
(PID.TID 0000.0001) // Begin MONITOR dynamic field statistics
(PID.TID 0000.0001) // =======================================================
(PID.TID 0000.0001) %MON time_tsnumber                =                  1000
(PID.TID 0000.0001) %MON time_secondsf                =   1.0000000000000E+05
(PID.TID 0000.0001) %MON dynstat_eta_max              =   5.7982380306502E+00
(PID.TID 0000.0001) %MON dynstat_eta_min              =  -1.4173058043249E+01
(PID.TID 0000.0001) %MON dynstat_eta_mean             =  -2.5251842152734E+00
(PID.TID 0000.0001) %MON dynstat_eta_sd               =   4.9413981656120E+00
(PID.TID 0000.0001) %MON dynstat_eta_del2             =   1.9058444478662E-01
(PID.TID 0000.0001) %MON dynstat_uvel_max             =   4.4488344679570E-03
(PID.TID 0000.0001) %MON dynstat_uvel_min             =  -2.0778233071148E-02
(PID.TID 0000.0001) %MON dynstat_uvel_mean            =   8.3308585829570E-11
(PID.TID 0000.0001) %MON dynstat_uvel_sd              =   5.6342599162027E-04
(PID.TID 0000.0001) %MON dynstat_uvel_del2            =   8.7678763809674E-07
(PID.TID 0000.0001) %MON dynstat_vvel_max             =   1.5616002093724E-02
(PID.TID 0000.0001) %MON dynstat_vvel_min             =  -5.6712750086660E-03
(PID.TID 0000.0001) %MON dynstat_vvel_mean            =   2.0146397877548E-08
(PID.TID 0000.0001) %MON dynstat_vvel_sd              =   2.9638784967260E-04
(PID.TID 0000.0001) %MON dynstat_vvel_del2            =   7.7601566953298E-07
(PID.TID 0000.0001) %MON dynstat_wvel_max             =   8.5375829972971E-04
(PID.TID 0000.0001) %MON dynstat_wvel_min             =  -9.3271176906685E-04
(PID.TID 0000.0001) %MON dynstat_wvel_mean            =   1.3287752785332E-10
(PID.TID 0000.0001) %MON dynstat_wvel_sd              =   1.4768672803763E-05
(PID.TID 0000.0001) %MON dynstat_wvel_del2            =   6.3014800802447E-08
(PID.TID 0000.0001) %MON dynstat_theta_max            =   1.2000000000000E+00
(PID.TID 0000.0001) %MON dynstat_theta_min            =  -1.0000000000000E+00
(PID.TID 0000.0001) %MON dynstat_theta_mean           =   5.6522571057107E-01
(PID.TID 0000.0001) %MON dynstat_theta_sd             =   8.4898076139782E-01
(PID.TID 0000.0001) %MON dynstat_theta_del2           =   2.1810569987996E-06
(PID.TID 0000.0001) %MON dynstat_salt_max             =   3.4700000000000E+01
(PID.TID 0000.0001) %MON dynstat_salt_min             =   3.4000000000000E+01
(PID.TID 0000.0001) %MON dynstat_salt_mean            =   3.4498004201791E+01
(PID.TID 0000.0001) %MON dynstat_salt_sd              =   2.7012817718452E-01
(PID.TID 0000.0001) %MON dynstat_salt_del2            =   8.6118002058645E-07
(PID.TID 0000.0001) %MON advcfl_uvel_max              =   2.0778233071148E-03
(PID.TID 0000.0001) %MON advcfl_vvel_max              =   1.5616002093724E-03
(PID.TID 0000.0001) %MON advcfl_wvel_max              =   4.6635588453342E-03
(PID.TID 0000.0001) %MON advcfl_W_hf_max              =   4.6635588453342E-03
(PID.TID 0000.0001) %MON pe_b_mean                    =  -6.8229275127238E-01
(PID.TID 0000.0001) %MON ke_max                       =   1.5248702066060E-04
(PID.TID 0000.0001) %MON ke_mean                      =   1.9966218978067E-07
(PID.TID 0000.0001) %MON ke_vol                       =   4.6183003779601E+12
(PID.TID 0000.0001) // =======================================================
(PID.TID 0000.0001) // End MONITOR dynamic field statistics
(PID.TID 0000.0001) // =======================================================
(PID.TID 0000.0001) // =======================================================
(PID.TID 0000.0001) // Begin OBCS MONITOR field statistics
(PID.TID 0000.0001) // =======================================================
(PID.TID 0000.0001) %MON obc_N_vVel_max               =   5.9175988759420E-09
(PID.TID 0000.0001) %MON obc_N_vVel_min               =   5.9175988759420E-09
(PID.TID 0000.0001) %MON obc_N_vVel_mean              =   5.9175988759420E-09
(PID.TID 0000.0001) %MON obc_N_vVel_sd                =  -7.3955709864470E-32
(PID.TID 0000.0001) %MON obc_N_vVel_Int               =   3.9056152581217E-01
(PID.TID 0000.0001) // =======================================================
(PID.TID 0000.0001) // End OBCS MONITOR field statistics
(PID.TID 0000.0001) // =======================================================
 cg2d: Sum(rhs),rhsMax =   3.00984300726913E+00  4.53045867217092E+02
(PID.TID 0000.0001)      cg2d_init_res =   2.63018595244550E-06
(PID.TID 0000.0001)      cg2d_iters(min,last) =      -1      74
(PID.TID 0000.0001)      cg2d_last_res =   7.93108558969284E-12
(PID.TID 0000.0001) // =======================================================
(PID.TID 0000.0001) // Begin MONITOR dynamic field statistics
(PID.TID 0000.0001) // =======================================================
(PID.TID 0000.0001) %MON time_tsnumber                =                  1001
(PID.TID 0000.0001) %MON time_secondsf                =   1.0010000000000E+05
(PID.TID 0000.0001) %MON dynstat_eta_max              =   5.7982407529033E+00
(PID.TID 0000.0001) %MON dynstat_eta_min              =  -1.4173048130933E+01
(PID.TID 0000.0001) %MON dynstat_eta_mean             =  -2.5251795100288E+00
(PID.TID 0000.0001) %MON dynstat_eta_sd               =   4.9413967750369E+00
(PID.TID 0000.0001) %MON dynstat_eta_del2             =   1.9058445764733E-01
(PID.TID 0000.0001) %MON dynstat_uvel_max             =   4.4601348460347E-03
(PID.TID 0000.0001) %MON dynstat_uvel_min             =  -2.0835134744918E-02
(PID.TID 0000.0001) %MON dynstat_uvel_mean            =   1.0284277000031E-10
(PID.TID 0000.0001) %MON dynstat_uvel_sd              =   5.6492302764868E-04
(PID.TID 0000.0001) %MON dynstat_uvel_del2            =   8.7892066079709E-07
(PID.TID 0000.0001) %MON dynstat_vvel_max             =   1.5650732518646E-02
(PID.TID 0000.0001) %MON dynstat_vvel_min             =  -5.6842565185455E-03
(PID.TID 0000.0001) %MON dynstat_vvel_mean            =   5.6984904410458E-09
(PID.TID 0000.0001) %MON dynstat_vvel_sd              =   2.9702399173003E-04
(PID.TID 0000.0001) %MON dynstat_vvel_del2            =   7.7772958073736E-07
(PID.TID 0000.0001) %MON dynstat_wvel_max             =   8.5595876398390E-04
(PID.TID 0000.0001) %MON dynstat_wvel_min             =  -9.3565403085315E-04
(PID.TID 0000.0001) %MON dynstat_wvel_mean            =   1.3707453265644E-10
(PID.TID 0000.0001) %MON dynstat_wvel_sd              =   1.4830724098601E-05
(PID.TID 0000.0001) %MON dynstat_wvel_del2            =   6.3270100055366E-08
(PID.TID 0000.0001) %MON dynstat_theta_max            =   1.2000000000000E+00
(PID.TID 0000.0001) %MON dynstat_theta_min            =  -1.0000000000000E+00
(PID.TID 0000.0001) %MON dynstat_theta_mean           =   5.6522518747636E-01
(PID.TID 0000.0001) %MON dynstat_theta_sd             =   8.4898054176067E-01
(PID.TID 0000.0001) %MON dynstat_theta_del2           =   2.1856830123141E-06
(PID.TID 0000.0001) %MON dynstat_salt_max             =   3.4700000000000E+01
(PID.TID 0000.0001) %MON dynstat_salt_min             =   3.4000000000000E+01
(PID.TID 0000.0001) %MON dynstat_salt_mean            =   3.4498003993160E+01
(PID.TID 0000.0001) %MON dynstat_salt_sd              =   2.7012809509096E-01
(PID.TID 0000.0001) %MON dynstat_salt_del2            =   8.6302887732292E-07
(PID.TID 0000.0001) %MON advcfl_uvel_max              =   2.0835134744918E-03
(PID.TID 0000.0001) %MON advcfl_vvel_max              =   1.5650732518646E-03
(PID.TID 0000.0001) %MON advcfl_wvel_max              =   4.6782701542658E-03
(PID.TID 0000.0001) %MON advcfl_W_hf_max              =   4.6782701542658E-03
(PID.TID 0000.0001) %MON pe_b_mean                    =  -6.8229136986546E-01
(PID.TID 0000.0001) %MON ke_max                       =   1.5342358625880E-04
(PID.TID 0000.0001) %MON ke_mean                      =   2.0067964368433E-07
(PID.TID 0000.0001) %MON ke_vol                       =   4.6183004057613E+12
(PID.TID 0000.0001) // =======================================================
(PID.TID 0000.0001) // End MONITOR dynamic field statistics
(PID.TID 0000.0001) // =======================================================
(PID.TID 0000.0001) // =======================================================
(PID.TID 0000.0001) // Begin OBCS MONITOR field statistics
(PID.TID 0000.0001) // =======================================================
(PID.TID 0000.0001) %MON obc_N_vVel_max               =  -8.2845350611911E-09
(PID.TID 0000.0001) %MON obc_N_vVel_min               =  -8.2845350611911E-09
(PID.TID 0000.0001) %MON obc_N_vVel_mean              =  -8.2845350611911E-09
(PID.TID 0000.0001) %MON obc_N_vVel_sd                =   1.3955287025942E-15
(PID.TID 0000.0001) %MON obc_N_vVel_Int               =  -5.4677931403861E-01
(PID.TID 0000.0001) // =======================================================
(PID.TID 0000.0001) // End OBCS MONITOR field statistics
(PID.TID 0000.0001) // =======================================================
 cg2d: Sum(rhs),rhsMax =   3.00983746925689E+00  4.53045852131681E+02
(PID.TID 0000.0001)      cg2d_init_res =   2.63766422665816E-06
(PID.TID 0000.0001)      cg2d_iters(min,last) =      -1      74
(PID.TID 0000.0001)      cg2d_last_res =   7.95500158600842E-12
(PID.TID 0000.0001) // =======================================================
(PID.TID 0000.0001) // Begin MONITOR dynamic field statistics
(PID.TID 0000.0001) // =======================================================
(PID.TID 0000.0001) %MON time_tsnumber                =                  1002
(PID.TID 0000.0001) %MON time_secondsf                =   1.0020000000000E+05
(PID.TID 0000.0001) %MON dynstat_eta_max              =   5.7982435011866E+00
(PID.TID 0000.0001) %MON dynstat_eta_min              =  -1.4173038166096E+01
(PID.TID 0000.0001) %MON dynstat_eta_mean             =  -2.5251747796988E+00
(PID.TID 0000.0001) %MON dynstat_eta_sd               =   4.9413953769396E+00
(PID.TID 0000.0001) %MON dynstat_eta_del2             =   1.9058447053931E-01
(PID.TID 0000.0001) %MON dynstat_uvel_max             =   4.4714618404242E-03
(PID.TID 0000.0001) %MON dynstat_uvel_min             =  -2.0892136774259E-02
(PID.TID 0000.0001) %MON dynstat_uvel_mean            =   1.1715377476652E-10
(PID.TID 0000.0001) %MON dynstat_uvel_sd              =   5.6642323003741E-04
(PID.TID 0000.0001) %MON dynstat_uvel_del2            =   8.8105917943863E-07
(PID.TID 0000.0001) %MON dynstat_vvel_max             =   1.5685501425556E-02
(PID.TID 0000.0001) %MON dynstat_vvel_min             =  -5.6972611720205E-03
(PID.TID 0000.0001) %MON dynstat_vvel_mean            =  -8.8154627657427E-09
(PID.TID 0000.0001) %MON dynstat_vvel_sd              =   2.9766092818793E-04
(PID.TID 0000.0001) %MON dynstat_vvel_del2            =   7.7943610756171E-07
(PID.TID 0000.0001) %MON dynstat_wvel_max             =   8.5816300786987E-04
(PID.TID 0000.0001) %MON dynstat_wvel_min             =  -9.3860420145795E-04
(PID.TID 0000.0001) %MON dynstat_wvel_mean            =   1.4224909546505E-10
(PID.TID 0000.0001) %MON dynstat_wvel_sd              =   1.4893190825984E-05
(PID.TID 0000.0001) %MON dynstat_wvel_del2            =   6.3516824203696E-08
(PID.TID 0000.0001) %MON dynstat_theta_max            =   1.2000000000000E+00
(PID.TID 0000.0001) %MON dynstat_theta_min            =  -1.0000000000000E+00
(PID.TID 0000.0001) %MON dynstat_theta_mean           =   5.6522466336310E-01
(PID.TID 0000.0001) %MON dynstat_theta_sd             =   8.4898032161691E-01
(PID.TID 0000.0001) %MON dynstat_theta_del2           =   2.1903302304406E-06
(PID.TID 0000.0001) %MON dynstat_salt_max             =   3.4700000000000E+01
(PID.TID 0000.0001) %MON dynstat_salt_min             =   3.4000000000000E+01
(PID.TID 0000.0001) %MON dynstat_salt_mean            =   3.4498003784121E+01
(PID.TID 0000.0001) %MON dynstat_salt_sd              =   2.7012801280157E-01
(PID.TID 0000.0001) %MON dynstat_salt_del2            =   8.6488465855953E-07
(PID.TID 0000.0001) %MON advcfl_uvel_max              =   2.0892136774259E-03
(PID.TID 0000.0001) %MON advcfl_vvel_max              =   1.5685501425556E-03
(PID.TID 0000.0001) %MON advcfl_wvel_max              =   4.6930210072897E-03
(PID.TID 0000.0001) %MON advcfl_W_hf_max              =   4.6930210072897E-03
(PID.TID 0000.0001) %MON pe_b_mean                    =  -6.8228998252601E-01
(PID.TID 0000.0001) %MON ke_max                       =   1.5436512887230E-04
(PID.TID 0000.0001) %MON ke_mean                      =   2.0170169768371E-07
(PID.TID 0000.0001) %MON ke_vol                       =   4.6183004337104E+12
(PID.TID 0000.0001) // =======================================================
(PID.TID 0000.0001) // End MONITOR dynamic field statistics
(PID.TID 0000.0001) // =======================================================
(PID.TID 0000.0001) // =======================================================
(PID.TID 0000.0001) // Begin OBCS MONITOR field statistics
(PID.TID 0000.0001) // =======================================================
(PID.TID 0000.0001) %MON obc_N_vVel_max               =  -2.2629608417552E-08
(PID.TID 0000.0001) %MON obc_N_vVel_min               =  -2.2629608417553E-08
(PID.TID 0000.0001) %MON obc_N_vVel_mean              =  -2.2629608417552E-08
(PID.TID 0000.0001) %MON obc_N_vVel_sd                =   5.6784407631769E-15
(PID.TID 0000.0001) %MON obc_N_vVel_Int               =  -1.4935541555584E+00
(PID.TID 0000.0001) // =======================================================
(PID.TID 0000.0001) // End OBCS MONITOR field statistics
(PID.TID 0000.0001) // =======================================================
 cg2d: Sum(rhs),rhsMax =   3.00983190037386E+00  4.53045837188404E+02
(PID.TID 0000.0001)      cg2d_init_res =   2.64510303509992E-06
(PID.TID 0000.0001)      cg2d_iters(min,last) =      -1      74
(PID.TID 0000.0001)      cg2d_last_res =   7.97894106011071E-12
(PID.TID 0000.0001) // =======================================================
(PID.TID 0000.0001) // Begin MONITOR dynamic field statistics
(PID.TID 0000.0001) // =======================================================
(PID.TID 0000.0001) %MON time_tsnumber                =                  1003
(PID.TID 0000.0001) %MON time_secondsf                =   1.0030000000000E+05
(PID.TID 0000.0001) %MON dynstat_eta_max              =   5.7982462754300E+00
(PID.TID 0000.0001) %MON dynstat_eta_min              =  -1.4173028148941E+01
(PID.TID 0000.0001) %MON dynstat_eta_mean             =  -2.5251700242616E+00
(PID.TID 0000.0001) %MON dynstat_eta_sd               =   4.9413939714651E+00
(PID.TID 0000.0001) %MON dynstat_eta_del2             =   1.9058448346416E-01
(PID.TID 0000.0001) %MON dynstat_uvel_max             =   4.4828155119427E-03
(PID.TID 0000.0001) %MON dynstat_uvel_min             =  -2.0949239051402E-02
(PID.TID 0000.0001) %MON dynstat_uvel_mean            =   1.2614296245272E-10
(PID.TID 0000.0001) %MON dynstat_uvel_sd              =   5.6792660205917E-04
(PID.TID 0000.0001) %MON dynstat_uvel_del2            =   8.8320321226074E-07
(PID.TID 0000.0001) %MON dynstat_vvel_max             =   1.5720308743289E-02
(PID.TID 0000.0001) %MON dynstat_vvel_min             =  -5.7102889754326E-03
(PID.TID 0000.0001) %MON dynstat_vvel_mean            =  -2.3257391251531E-08
(PID.TID 0000.0001) %MON dynstat_vvel_sd              =   2.9829823996716E-04
(PID.TID 0000.0001) %MON dynstat_vvel_del2            =   7.8113319822062E-07
(PID.TID 0000.0001) %MON dynstat_wvel_max             =   8.6037103146140E-04
(PID.TID 0000.0001) %MON dynstat_wvel_min             =  -9.4156228830891E-04
(PID.TID 0000.0001) %MON dynstat_wvel_mean            =   1.4836664129520E-10
(PID.TID 0000.0001) %MON dynstat_wvel_sd              =   1.4954603320164E-05
(PID.TID 0000.0001) %MON dynstat_wvel_del2            =   6.3747489717076E-08
(PID.TID 0000.0001) %MON dynstat_theta_max            =   1.2000000000000E+00
(PID.TID 0000.0001) %MON dynstat_theta_min            =  -1.0000000000000E+00
(PID.TID 0000.0001) %MON dynstat_theta_mean           =   5.6522413823152E-01
(PID.TID 0000.0001) %MON dynstat_theta_sd             =   8.4898010096651E-01
(PID.TID 0000.0001) %MON dynstat_theta_del2           =   2.1950012544405E-06
(PID.TID 0000.0001) %MON dynstat_salt_max             =   3.4700000000000E+01
(PID.TID 0000.0001) %MON dynstat_salt_min             =   3.4000000000000E+01
(PID.TID 0000.0001) %MON dynstat_salt_mean            =   3.4498003574675E+01
(PID.TID 0000.0001) %MON dynstat_salt_sd              =   2.7012793031647E-01
(PID.TID 0000.0001) %MON dynstat_salt_del2            =   8.6674803258487E-07
(PID.TID 0000.0001) %MON advcfl_uvel_max              =   2.0949239051402E-03
(PID.TID 0000.0001) %MON advcfl_vvel_max              =   1.5720308743289E-03
(PID.TID 0000.0001) %MON advcfl_wvel_max              =   4.7078114415446E-03
(PID.TID 0000.0001) %MON advcfl_W_hf_max              =   4.7078114415446E-03
(PID.TID 0000.0001) %MON pe_b_mean                    =  -6.8228858927521E-01
(PID.TID 0000.0001) %MON ke_max                       =   1.5531167012184E-04
(PID.TID 0000.0001) %MON ke_mean                      =   2.0272824409621E-07
(PID.TID 0000.0001) %MON ke_vol                       =   4.6183004618086E+12
(PID.TID 0000.0001) // =======================================================
(PID.TID 0000.0001) // End MONITOR dynamic field statistics
(PID.TID 0000.0001) // =======================================================
(PID.TID 0000.0001) // =======================================================
(PID.TID 0000.0001) // Begin OBCS MONITOR field statistics
(PID.TID 0000.0001) // =======================================================
(PID.TID 0000.0001) %MON obc_N_vVel_max               =  -3.6982455555992E-08
(PID.TID 0000.0001) %MON obc_N_vVel_min               =  -3.6982455555993E-08
(PID.TID 0000.0001) %MON obc_N_vVel_mean              =  -3.6982455555993E-08
(PID.TID 0000.0001) %MON obc_N_vVel_sd                =  -6.5475455133344E-29
(PID.TID 0000.0001) %MON obc_N_vVel_Int               =  -2.4408420666955E+00
(PID.TID 0000.0001) // =======================================================
(PID.TID 0000.0001) // End OBCS MONITOR field statistics
(PID.TID 0000.0001) // =======================================================
 cg2d: Sum(rhs),rhsMax =   3.00982630046213E+00  4.53045822434860E+02
(PID.TID 0000.0001)      cg2d_init_res =   2.65241844395354E-06
(PID.TID 0000.0001)      cg2d_iters(min,last) =      -1      74
(PID.TID 0000.0001)      cg2d_last_res =   8.00281499425473E-12
(PID.TID 0000.0001) // =======================================================
(PID.TID 0000.0001) // Begin MONITOR dynamic field statistics
(PID.TID 0000.0001) // =======================================================
(PID.TID 0000.0001) %MON time_tsnumber                =                  1004
(PID.TID 0000.0001) %MON time_secondsf                =   1.0040000000000E+05
(PID.TID 0000.0001) %MON dynstat_eta_max              =   5.7982490753067E+00
(PID.TID 0000.0001) %MON dynstat_eta_min              =  -1.4173018079940E+01
(PID.TID 0000.0001) %MON dynstat_eta_mean             =  -2.5251652438499E+00
(PID.TID 0000.0001) %MON dynstat_eta_sd               =   4.9413925588082E+00
(PID.TID 0000.0001) %MON dynstat_eta_del2             =   1.9058449642348E-01
(PID.TID 0000.0001) %MON dynstat_uvel_max             =   4.4941959213451E-03
(PID.TID 0000.0001) %MON dynstat_uvel_min             =  -2.1006441467180E-02
(PID.TID 0000.0001) %MON dynstat_uvel_mean            =   1.2975122901852E-10
(PID.TID 0000.0001) %MON dynstat_uvel_sd              =   5.6943314705931E-04
(PID.TID 0000.0001) %MON dynstat_uvel_del2            =   8.8535277780966E-07
(PID.TID 0000.0001) %MON dynstat_vvel_max             =   1.5755154400764E-02
(PID.TID 0000.0001) %MON dynstat_vvel_min             =  -5.7233399347414E-03
(PID.TID 0000.0001) %MON dynstat_vvel_mean            =  -3.7488283495089E-08
(PID.TID 0000.0001) %MON dynstat_vvel_sd              =   2.9893552223183E-04
(PID.TID 0000.0001) %MON dynstat_vvel_del2            =   7.8281912749420E-07
(PID.TID 0000.0001) %MON dynstat_wvel_max             =   8.6258283482762E-04
(PID.TID 0000.0001) %MON dynstat_wvel_min             =  -9.4452829874308E-04
(PID.TID 0000.0001) %MON dynstat_wvel_mean            =   1.5538395298516E-10
(PID.TID 0000.0001) %MON dynstat_wvel_sd              =   1.5013515130924E-05
(PID.TID 0000.0001) %MON dynstat_wvel_del2            =   6.3954921764778E-08
(PID.TID 0000.0001) %MON dynstat_theta_max            =   1.2000000000000E+00
(PID.TID 0000.0001) %MON dynstat_theta_min            =  -1.0000000000000E+00
(PID.TID 0000.0001) %MON dynstat_theta_mean           =   5.6522361208212E-01
(PID.TID 0000.0001) %MON dynstat_theta_sd             =   8.4897987981130E-01
(PID.TID 0000.0001) %MON dynstat_theta_del2           =   2.1996983167367E-06
(PID.TID 0000.0001) %MON dynstat_salt_max             =   3.4700000000000E+01
(PID.TID 0000.0001) %MON dynstat_salt_min             =   3.4000000000000E+01
(PID.TID 0000.0001) %MON dynstat_salt_mean            =   3.4498003364821E+01
(PID.TID 0000.0001) %MON dynstat_salt_sd              =   2.7012784763623E-01
(PID.TID 0000.0001) %MON dynstat_salt_del2            =   8.6861957369714E-07
(PID.TID 0000.0001) %MON advcfl_uvel_max              =   2.1006441467180E-03
(PID.TID 0000.0001) %MON advcfl_vvel_max              =   1.5755154400764E-03
(PID.TID 0000.0001) %MON advcfl_wvel_max              =   4.7226414937154E-03
(PID.TID 0000.0001) %MON advcfl_W_hf_max              =   4.7226414937154E-03
(PID.TID 0000.0001) %MON pe_b_mean                    =  -6.8228719016479E-01
(PID.TID 0000.0001) %MON ke_max                       =   1.5626323169196E-04
(PID.TID 0000.0001) %MON ke_mean                      =   2.0375917851112E-07
(PID.TID 0000.0001) %MON ke_vol                       =   4.6183004900559E+12
(PID.TID 0000.0001) // =======================================================
(PID.TID 0000.0001) // End MONITOR dynamic field statistics
(PID.TID 0000.0001) // =======================================================
(PID.TID 0000.0001) // =======================================================
(PID.TID 0000.0001) // Begin OBCS MONITOR field statistics
(PID.TID 0000.0001) // =======================================================
(PID.TID 0000.0001) %MON obc_N_vVel_max               =  -5.1206330171852E-08
(PID.TID 0000.0001) %MON obc_N_vVel_min               =  -5.1206330171852E-08
(PID.TID 0000.0001) %MON obc_N_vVel_mean              =  -5.1206330171852E-08
(PID.TID 0000.0001) %MON obc_N_vVel_sd                =   1.1339502967548E-14
(PID.TID 0000.0001) %MON obc_N_vVel_Int               =  -3.3796177913422E+00
(PID.TID 0000.0001) // =======================================================
(PID.TID 0000.0001) // End OBCS MONITOR field statistics
(PID.TID 0000.0001) // =======================================================
 cg2d: Sum(rhs),rhsMax =   3.00982066954961E+00  4.53045807917888E+02
(PID.TID 0000.0001)      cg2d_init_res =   2.65952467960959E-06
(PID.TID 0000.0001)      cg2d_iters(min,last) =      -1      74
(PID.TID 0000.0001)      cg2d_last_res =   8.02653466265150E-12
(PID.TID 0000.0001) // =======================================================
(PID.TID 0000.0001) // Begin MONITOR dynamic field statistics
(PID.TID 0000.0001) // =======================================================
(PID.TID 0000.0001) %MON time_tsnumber                =                  1005
(PID.TID 0000.0001) %MON time_secondsf                =   1.0050000000000E+05
(PID.TID 0000.0001) %MON dynstat_eta_max              =   5.7982519002450E+00
(PID.TID 0000.0001) %MON dynstat_eta_min              =  -1.4173007959829E+01
(PID.TID 0000.0001) %MON dynstat_eta_mean             =  -2.5251604387483E+00
(PID.TID 0000.0001) %MON dynstat_eta_sd               =   4.9413911392119E+00
(PID.TID 0000.0001) %MON dynstat_eta_del2             =   1.9058450941888E-01
(PID.TID 0000.0001) %MON dynstat_uvel_max             =   4.5056031291040E-03
(PID.TID 0000.0001) %MON dynstat_uvel_min             =  -2.1063743910713E-02
(PID.TID 0000.0001) %MON dynstat_uvel_mean            =   1.2796687832214E-10
(PID.TID 0000.0001) %MON dynstat_uvel_sd              =   5.7094286841397E-04
(PID.TID 0000.0001) %MON dynstat_uvel_del2            =   8.8750789468748E-07
(PID.TID 0000.0001) %MON dynstat_vvel_max             =   1.5790038320403E-02
(PID.TID 0000.0001) %MON dynstat_vvel_min             =  -5.7364140556571E-03
(PID.TID 0000.0001) %MON dynstat_vvel_mean            =  -5.1369481707944E-08
(PID.TID 0000.0001) %MON dynstat_vvel_sd              =   2.9957240397710E-04
(PID.TID 0000.0001) %MON dynstat_vvel_del2            =   7.8449263995209E-07
(PID.TID 0000.0001) %MON dynstat_wvel_max             =   8.6479841689574E-04
(PID.TID 0000.0001) %MON dynstat_wvel_min             =  -9.4750224001315E-04
(PID.TID 0000.0001) %MON dynstat_wvel_mean            =   1.6324902705030E-10
(PID.TID 0000.0001) %MON dynstat_wvel_sd              =   1.5068586991174E-05
(PID.TID 0000.0001) %MON dynstat_wvel_del2            =   6.4132859826273E-08
(PID.TID 0000.0001) %MON dynstat_theta_max            =   1.2000000000000E+00
(PID.TID 0000.0001) %MON dynstat_theta_min            =  -1.0000000000000E+00
(PID.TID 0000.0001) %MON dynstat_theta_mean           =   5.6522308491529E-01
(PID.TID 0000.0001) %MON dynstat_theta_sd             =   8.4897965815280E-01
(PID.TID 0000.0001) %MON dynstat_theta_del2           =   2.2044231194783E-06
(PID.TID 0000.0001) %MON dynstat_salt_max             =   3.4700000000000E+01
(PID.TID 0000.0001) %MON dynstat_salt_min             =   3.4000000000000E+01
(PID.TID 0000.0001) %MON dynstat_salt_mean            =   3.4498003154560E+01
(PID.TID 0000.0001) %MON dynstat_salt_sd              =   2.7012776476154E-01
(PID.TID 0000.0001) %MON dynstat_salt_del2            =   8.7049971438424E-07
(PID.TID 0000.0001) %MON advcfl_uvel_max              =   2.1063743910713E-03
(PID.TID 0000.0001) %MON advcfl_vvel_max              =   1.5790038320403E-03
(PID.TID 0000.0001) %MON advcfl_wvel_max              =   4.7375112000657E-03
(PID.TID 0000.0001) %MON advcfl_W_hf_max              =   4.7375112000657E-03
(PID.TID 0000.0001) %MON pe_b_mean                    =  -6.8228578527626E-01
(PID.TID 0000.0001) %MON ke_max                       =   1.5721983533083E-04
(PID.TID 0000.0001) %MON ke_mean                      =   2.0479440567917E-07
(PID.TID 0000.0001) %MON ke_vol                       =   4.6183005184515E+12
(PID.TID 0000.0001) // =======================================================
(PID.TID 0000.0001) // End MONITOR dynamic field statistics
(PID.TID 0000.0001) // =======================================================
(PID.TID 0000.0001) // =======================================================
(PID.TID 0000.0001) // Begin OBCS MONITOR field statistics
(PID.TID 0000.0001) // =======================================================
(PID.TID 0000.0001) %MON obc_N_vVel_max               =  -6.5164143961419E-08
(PID.TID 0000.0001) %MON obc_N_vVel_min               =  -6.5164143961420E-08
(PID.TID 0000.0001) %MON obc_N_vVel_mean              =  -6.5164143961419E-08
(PID.TID 0000.0001) %MON obc_N_vVel_sd                =   1.1682163181673E-14
(PID.TID 0000.0001) %MON obc_N_vVel_Int               =  -4.3008335014536E+00
(PID.TID 0000.0001) // =======================================================
(PID.TID 0000.0001) // End OBCS MONITOR field statistics
(PID.TID 0000.0001) // =======================================================
 cg2d: Sum(rhs),rhsMax =   3.00981500785092E+00  4.53045793683263E+02
(PID.TID 0000.0001)      cg2d_init_res =   2.66634072399543E-06
(PID.TID 0000.0001)      cg2d_iters(min,last) =      -1      74
(PID.TID 0000.0001)      cg2d_last_res =   8.05005683386041E-12
(PID.TID 0000.0001) // =======================================================
(PID.TID 0000.0001) // Begin MONITOR dynamic field statistics
(PID.TID 0000.0001) // =======================================================
(PID.TID 0000.0001) %MON time_tsnumber                =                  1006
(PID.TID 0000.0001) %MON time_secondsf                =   1.0060000000000E+05
(PID.TID 0000.0001) %MON dynstat_eta_max              =   5.7982547494294E+00
(PID.TID 0000.0001) %MON dynstat_eta_min              =  -1.4172997789616E+01
(PID.TID 0000.0001) %MON dynstat_eta_mean             =  -2.5251556093919E+00
(PID.TID 0000.0001) %MON dynstat_eta_sd               =   4.9413897129643E+00
(PID.TID 0000.0001) %MON dynstat_eta_del2             =   1.9058452245199E-01
(PID.TID 0000.0001) %MON dynstat_uvel_max             =   4.5170371955630E-03
(PID.TID 0000.0001) %MON dynstat_uvel_min             =  -2.1121146269457E-02
(PID.TID 0000.0001) %MON dynstat_uvel_mean            =   1.2082551436766E-10
(PID.TID 0000.0001) %MON dynstat_uvel_sd              =   5.7245576947894E-04
(PID.TID 0000.0001) %MON dynstat_uvel_del2            =   8.8966858133908E-07
(PID.TID 0000.0001) %MON dynstat_vvel_max             =   1.5824960432906E-02
(PID.TID 0000.0001) %MON dynstat_vvel_min             =  -5.7495113438275E-03
(PID.TID 0000.0001) %MON dynstat_vvel_mean            =  -6.4764008485186E-08
(PID.TID 0000.0001) %MON dynstat_vvel_sd              =   3.0020856613654E-04
(PID.TID 0000.0001) %MON dynstat_vvel_del2            =   7.8615307053344E-07
(PID.TID 0000.0001) %MON dynstat_wvel_max             =   8.6701777822724E-04
(PID.TID 0000.0001) %MON dynstat_wvel_min             =  -9.5048411923800E-04
(PID.TID 0000.0001) %MON dynstat_wvel_mean            =   1.7190149494411E-10
(PID.TID 0000.0001) %MON dynstat_wvel_sd              =   1.5118662564096E-05
(PID.TID 0000.0001) %MON dynstat_wvel_del2            =   6.4276491737865E-08
(PID.TID 0000.0001) %MON dynstat_theta_max            =   1.2000000000000E+00
(PID.TID 0000.0001) %MON dynstat_theta_min            =  -1.0000000000000E+00
(PID.TID 0000.0001) %MON dynstat_theta_mean           =   5.6522255673128E-01
(PID.TID 0000.0001) %MON dynstat_theta_sd             =   8.4897943599215E-01
(PID.TID 0000.0001) %MON dynstat_theta_del2           =   2.2091767017570E-06
(PID.TID 0000.0001) %MON dynstat_salt_max             =   3.4700000000000E+01
(PID.TID 0000.0001) %MON dynstat_salt_min             =   3.4000000000000E+01
(PID.TID 0000.0001) %MON dynstat_salt_mean            =   3.4498002943892E+01
(PID.TID 0000.0001) %MON dynstat_salt_sd              =   2.7012768169263E-01
(PID.TID 0000.0001) %MON dynstat_salt_del2            =   8.7238871284921E-07
(PID.TID 0000.0001) %MON advcfl_uvel_max              =   2.1121146269457E-03
(PID.TID 0000.0001) %MON advcfl_vvel_max              =   1.5824960432906E-03
(PID.TID 0000.0001) %MON advcfl_wvel_max              =   4.7524205961900E-03
(PID.TID 0000.0001) %MON advcfl_W_hf_max              =   4.7524205961900E-03
(PID.TID 0000.0001) %MON pe_b_mean                    =  -6.8228437472022E-01
(PID.TID 0000.0001) %MON ke_max                       =   1.5818150284965E-04
(PID.TID 0000.0001) %MON ke_mean                      =   2.0583384502922E-07
(PID.TID 0000.0001) %MON ke_vol                       =   4.6183005469938E+12
(PID.TID 0000.0001) // =======================================================
(PID.TID 0000.0001) // End MONITOR dynamic field statistics
(PID.TID 0000.0001) // =======================================================
(PID.TID 0000.0001) // =======================================================
(PID.TID 0000.0001) // Begin OBCS MONITOR field statistics
(PID.TID 0000.0001) // =======================================================
(PID.TID 0000.0001) %MON obc_N_vVel_max               =  -7.8719774950975E-08
(PID.TID 0000.0001) %MON obc_N_vVel_min               =  -7.8719774950975E-08
(PID.TID 0000.0001) %MON obc_N_vVel_mean              =  -7.8719774950975E-08
(PID.TID 0000.0001) %MON obc_N_vVel_sd                =   1.2623387138745E-14
(PID.TID 0000.0001) %MON obc_N_vVel_Int               =  -5.1955051467643E+00
(PID.TID 0000.0001) // =======================================================
(PID.TID 0000.0001) // End OBCS MONITOR field statistics
(PID.TID 0000.0001) // =======================================================
 cg2d: Sum(rhs),rhsMax =   3.00980931576755E+00  4.53045779775286E+02
(PID.TID 0000.0001)      cg2d_init_res =   2.67280073741645E-06
(PID.TID 0000.0001)      cg2d_iters(min,last) =      -1      74
(PID.TID 0000.0001)      cg2d_last_res =   8.07333523979570E-12
(PID.TID 0000.0001) // =======================================================
(PID.TID 0000.0001) // Begin MONITOR dynamic field statistics
(PID.TID 0000.0001) // =======================================================
(PID.TID 0000.0001) %MON time_tsnumber                =                  1007
(PID.TID 0000.0001) %MON time_secondsf                =   1.0070000000000E+05
(PID.TID 0000.0001) %MON dynstat_eta_max              =   5.7982576218012E+00
(PID.TID 0000.0001) %MON dynstat_eta_min              =  -1.4172987570563E+01
(PID.TID 0000.0001) %MON dynstat_eta_mean             =  -2.5251507563645E+00
(PID.TID 0000.0001) %MON dynstat_eta_sd               =   4.9413882803985E+00
(PID.TID 0000.0001) %MON dynstat_eta_del2             =   1.9058453552456E-01
(PID.TID 0000.0001) %MON dynstat_uvel_max             =   4.5284981810960E-03
(PID.TID 0000.0001) %MON dynstat_uvel_min             =  -2.1178648429262E-02
(PID.TID 0000.0001) %MON dynstat_uvel_mean            =   1.0841427453001E-10
(PID.TID 0000.0001) %MON dynstat_uvel_sd              =   5.7397185355410E-04
(PID.TID 0000.0001) %MON dynstat_uvel_del2            =   8.9183485587261E-07
(PID.TID 0000.0001) %MON dynstat_vvel_max             =   1.5859920666508E-02
(PID.TID 0000.0001) %MON dynstat_vvel_min             =  -5.7626318048696E-03
(PID.TID 0000.0001) %MON dynstat_vvel_mean            =  -7.7537914486510E-08
(PID.TID 0000.0001) %MON dynstat_vvel_sd              =   3.0084375710688E-04
(PID.TID 0000.0001) %MON dynstat_vvel_del2            =   7.8780043115868E-07
(PID.TID 0000.0001) %MON dynstat_wvel_max             =   8.6924091897885E-04
(PID.TID 0000.0001) %MON dynstat_wvel_min             =  -9.5347394344215E-04
(PID.TID 0000.0001) %MON dynstat_wvel_mean            =   1.8127305638116E-10
(PID.TID 0000.0001) %MON dynstat_wvel_sd              =   1.5162830893183E-05
(PID.TID 0000.0001) %MON dynstat_wvel_del2            =   6.4382871068144E-08
(PID.TID 0000.0001) %MON dynstat_theta_max            =   1.2000000000000E+00
(PID.TID 0000.0001) %MON dynstat_theta_min            =  -1.0000000000000E+00
(PID.TID 0000.0001) %MON dynstat_theta_mean           =   5.6522202753018E-01
(PID.TID 0000.0001) %MON dynstat_theta_sd             =   8.4897921333070E-01
(PID.TID 0000.0001) %MON dynstat_theta_del2           =   2.2139593250094E-06
(PID.TID 0000.0001) %MON dynstat_salt_max             =   3.4700000000000E+01
(PID.TID 0000.0001) %MON dynstat_salt_min             =   3.4000000000000E+01
(PID.TID 0000.0001) %MON dynstat_salt_mean            =   3.4498002732816E+01
(PID.TID 0000.0001) %MON dynstat_salt_sd              =   2.7012759843006E-01
(PID.TID 0000.0001) %MON dynstat_salt_del2            =   8.7428663455213E-07
(PID.TID 0000.0001) %MON advcfl_uvel_max              =   2.1178648429262E-03
(PID.TID 0000.0001) %MON advcfl_vvel_max              =   1.5859920666508E-03
(PID.TID 0000.0001) %MON advcfl_wvel_max              =   4.7673697172108E-03
(PID.TID 0000.0001) %MON advcfl_W_hf_max              =   4.7673697172108E-03
(PID.TID 0000.0001) %MON pe_b_mean                    =  -6.8228295863592E-01
(PID.TID 0000.0001) %MON ke_max                       =   1.5914825612341E-04
(PID.TID 0000.0001) %MON ke_mean                      =   2.0687743548642E-07
(PID.TID 0000.0001) %MON ke_vol                       =   4.6183005756802E+12
(PID.TID 0000.0001) // =======================================================
(PID.TID 0000.0001) // End MONITOR dynamic field statistics
(PID.TID 0000.0001) // =======================================================
(PID.TID 0000.0001) // =======================================================
(PID.TID 0000.0001) // Begin OBCS MONITOR field statistics
(PID.TID 0000.0001) // =======================================================
(PID.TID 0000.0001) %MON obc_N_vVel_max               =  -9.1739378286754E-08
(PID.TID 0000.0001) %MON obc_N_vVel_min               =  -9.1739378286755E-08
(PID.TID 0000.0001) %MON obc_N_vVel_mean              =  -9.1739378286754E-08
(PID.TID 0000.0001) %MON obc_N_vVel_sd                =   1.3759600911838E-14
(PID.TID 0000.0001) %MON obc_N_vVel_Int               =  -6.0547989669258E+00
(PID.TID 0000.0001) // =======================================================
(PID.TID 0000.0001) // End OBCS MONITOR field statistics
(PID.TID 0000.0001) // =======================================================
 cg2d: Sum(rhs),rhsMax =   3.00980359388944E+00  4.53045766236104E+02
(PID.TID 0000.0001)      cg2d_init_res =   2.67885790452090E-06
(PID.TID 0000.0001)      cg2d_iters(min,last) =      -1      74
(PID.TID 0000.0001)      cg2d_last_res =   8.09636264895888E-12
(PID.TID 0000.0001) // =======================================================
(PID.TID 0000.0001) // Begin MONITOR dynamic field statistics
(PID.TID 0000.0001) // =======================================================
(PID.TID 0000.0001) %MON time_tsnumber                =                  1008
(PID.TID 0000.0001) %MON time_secondsf                =   1.0080000000000E+05
(PID.TID 0000.0001) %MON dynstat_eta_max              =   5.7982605160734E+00
(PID.TID 0000.0001) %MON dynstat_eta_min              =  -1.4172977304183E+01
(PID.TID 0000.0001) %MON dynstat_eta_mean             =  -2.5251458803960E+00
(PID.TID 0000.0001) %MON dynstat_eta_sd               =   4.9413868418895E+00
(PID.TID 0000.0001) %MON dynstat_eta_del2             =   1.9058454863827E-01
(PID.TID 0000.0001) %MON dynstat_uvel_max             =   4.5399861460780E-03
(PID.TID 0000.0001) %MON dynstat_uvel_min             =  -2.1236250274073E-02
(PID.TID 0000.0001) %MON dynstat_uvel_mean            =   9.0874600252563E-11
(PID.TID 0000.0001) %MON dynstat_uvel_sd              =   5.7549112384961E-04
(PID.TID 0000.0001) %MON dynstat_uvel_del2            =   8.9400673584698E-07
(PID.TID 0000.0001) %MON dynstat_vvel_max             =   1.5894918948727E-02
(PID.TID 0000.0001) %MON dynstat_vvel_min             =  -5.7757754445653E-03
(PID.TID 0000.0001) %MON dynstat_vvel_mean            =  -8.9561632534721E-08
(PID.TID 0000.0001) %MON dynstat_vvel_sd              =   3.0147780479275E-04
(PID.TID 0000.0001) %MON dynstat_vvel_del2            =   7.8943545474475E-07
(PID.TID 0000.0001) %MON dynstat_wvel_max             =   8.7146783927582E-04
(PID.TID 0000.0001) %MON dynstat_wvel_min             =  -9.5647171944972E-04
(PID.TID 0000.0001) %MON dynstat_wvel_mean            =   1.9128763959251E-10
(PID.TID 0000.0001) %MON dynstat_wvel_sd              =   1.5200471817614E-05
(PID.TID 0000.0001) %MON dynstat_wvel_del2            =   6.4451185105530E-08
(PID.TID 0000.0001) %MON dynstat_theta_max            =   1.2000000000000E+00
(PID.TID 0000.0001) %MON dynstat_theta_min            =  -1.0000000000000E+00
(PID.TID 0000.0001) %MON dynstat_theta_mean           =   5.6522149731210E-01
(PID.TID 0000.0001) %MON dynstat_theta_sd             =   8.4897899017012E-01
(PID.TID 0000.0001) %MON dynstat_theta_del2           =   2.2187705001641E-06
(PID.TID 0000.0001) %MON dynstat_salt_max             =   3.4700000000000E+01
(PID.TID 0000.0001) %MON dynstat_salt_min             =   3.4000000000000E+01
(PID.TID 0000.0001) %MON dynstat_salt_mean            =   3.4498002521332E+01
(PID.TID 0000.0001) %MON dynstat_salt_sd              =   2.7012751497432E-01
(PID.TID 0000.0001) %MON dynstat_salt_del2            =   8.7619332502498E-07
(PID.TID 0000.0001) %MON advcfl_uvel_max              =   2.1236250274073E-03
(PID.TID 0000.0001) %MON advcfl_vvel_max              =   1.5894918948727E-03
(PID.TID 0000.0001) %MON advcfl_wvel_max              =   4.7823585972486E-03
(PID.TID 0000.0001) %MON advcfl_W_hf_max              =   4.7823585972486E-03
(PID.TID 0000.0001) %MON pe_b_mean                    =  -6.8228153719063E-01
(PID.TID 0000.0001) %MON ke_max                       =   1.6012011708815E-04
(PID.TID 0000.0001) %MON ke_mean                      =   2.0792513930144E-07
(PID.TID 0000.0001) %MON ke_vol                       =   4.6183006045072E+12
(PID.TID 0000.0001) // =======================================================
(PID.TID 0000.0001) // End MONITOR dynamic field statistics
(PID.TID 0000.0001) // =======================================================
(PID.TID 0000.0001) // =======================================================
(PID.TID 0000.0001) // Begin OBCS MONITOR field statistics
(PID.TID 0000.0001) // =======================================================
(PID.TID 0000.0001) %MON obc_N_vVel_max               =  -1.0409268737792E-07
(PID.TID 0000.0001) %MON obc_N_vVel_min               =  -1.0409268737792E-07
(PID.TID 0000.0001) %MON obc_N_vVel_mean              =  -1.0409268737792E-07
(PID.TID 0000.0001) %MON obc_N_vVel_sd                =  -4.6227249045951E-28
(PID.TID 0000.0001) %MON obc_N_vVel_Int               =  -6.8701173669428E+00
(PID.TID 0000.0001) // =======================================================
(PID.TID 0000.0001) // End OBCS MONITOR field statistics
(PID.TID 0000.0001) // =======================================================
 cg2d: Sum(rhs),rhsMax =   3.00979784298675E+00  4.53045753105639E+02
(PID.TID 0000.0001)      cg2d_init_res =   2.68448605773695E-06
(PID.TID 0000.0001)      cg2d_iters(min,last) =      -1      74
(PID.TID 0000.0001)      cg2d_last_res =   8.11917828651480E-12
(PID.TID 0000.0001) // =======================================================
(PID.TID 0000.0001) // Begin MONITOR dynamic field statistics
(PID.TID 0000.0001) // =======================================================
(PID.TID 0000.0001) %MON time_tsnumber                =                  1009
(PID.TID 0000.0001) %MON time_secondsf                =   1.0090000000000E+05
(PID.TID 0000.0001) %MON dynstat_eta_max              =   5.7982634307353E+00
(PID.TID 0000.0001) %MON dynstat_eta_min              =  -1.4172966992226E+01
(PID.TID 0000.0001) %MON dynstat_eta_mean             =  -2.5251409823549E+00
(PID.TID 0000.0001) %MON dynstat_eta_sd               =   4.9413853978488E+00
(PID.TID 0000.0001) %MON dynstat_eta_del2             =   1.9058456179477E-01
(PID.TID 0000.0001) %MON dynstat_uvel_max             =   4.5515011509112E-03
(PID.TID 0000.0001) %MON dynstat_uvel_min             =  -2.1293951686148E-02
(PID.TID 0000.0001) %MON dynstat_uvel_mean            =   6.8399263541218E-11
(PID.TID 0000.0001) %MON dynstat_uvel_sd              =   5.7701358348647E-04
(PID.TID 0000.0001) %MON dynstat_uvel_del2            =   8.9618423800555E-07
(PID.TID 0000.0001) %MON dynstat_vvel_max             =   1.5929955206111E-02
(PID.TID 0000.0001) %MON dynstat_vvel_min             =  -5.7889422689223E-03
(PID.TID 0000.0001) %MON dynstat_vvel_mean            =  -1.0071132121752E-07
(PID.TID 0000.0001) %MON dynstat_vvel_sd              =   3.0211062448079E-04
(PID.TID 0000.0001) %MON dynstat_vvel_del2            =   7.9105959163082E-07
(PID.TID 0000.0001) %MON dynstat_wvel_max             =   8.7369853920632E-04
(PID.TID 0000.0001) %MON dynstat_wvel_min             =  -9.5947745398271E-04
(PID.TID 0000.0001) %MON dynstat_wvel_mean            =   2.0186212229814E-10
(PID.TID 0000.0001) %MON dynstat_wvel_sd              =   1.5231282169627E-05
(PID.TID 0000.0001) %MON dynstat_wvel_del2            =   6.4482854579894E-08
(PID.TID 0000.0001) %MON dynstat_theta_max            =   1.2000000000000E+00
(PID.TID 0000.0001) %MON dynstat_theta_min            =  -1.0000000000000E+00
(PID.TID 0000.0001) %MON dynstat_theta_mean           =   5.6522096607693E-01
(PID.TID 0000.0001) %MON dynstat_theta_sd             =   8.4897876651108E-01
(PID.TID 0000.0001) %MON dynstat_theta_del2           =   2.2236088207303E-06
(PID.TID 0000.0001) %MON dynstat_salt_max             =   3.4700000000000E+01
(PID.TID 0000.0001) %MON dynstat_salt_min             =   3.4000000000000E+01
(PID.TID 0000.0001) %MON dynstat_salt_mean            =   3.4498002309441E+01
(PID.TID 0000.0001) %MON dynstat_salt_sd              =   2.7012743132583E-01
(PID.TID 0000.0001) %MON dynstat_salt_del2            =   8.7810808939847E-07
(PID.TID 0000.0001) %MON advcfl_uvel_max              =   2.1293951686148E-03
(PID.TID 0000.0001) %MON advcfl_vvel_max              =   1.5929955206111E-03
(PID.TID 0000.0001) %MON advcfl_wvel_max              =   4.7973872699135E-03
(PID.TID 0000.0001) %MON advcfl_W_hf_max              =   4.7973872699135E-03
(PID.TID 0000.0001) %MON pe_b_mean                    =  -6.8228011057780E-01
(PID.TID 0000.0001) %MON ke_max                       =   1.6109710773957E-04
(PID.TID 0000.0001) %MON ke_mean                      =   2.0897694468468E-07
(PID.TID 0000.0001) %MON ke_vol                       =   4.6183006334704E+12
(PID.TID 0000.0001) // =======================================================
(PID.TID 0000.0001) // End MONITOR dynamic field statistics
(PID.TID 0000.0001) // =======================================================
(PID.TID 0000.0001) // =======================================================
(PID.TID 0000.0001) // Begin OBCS MONITOR field statistics
(PID.TID 0000.0001) // =======================================================
(PID.TID 0000.0001) %MON obc_N_vVel_max               =  -1.1565436280554E-07
(PID.TID 0000.0001) %MON obc_N_vVel_min               =  -1.1565436280555E-07
(PID.TID 0000.0001) %MON obc_N_vVel_mean              =  -1.1565436280554E-07
(PID.TID 0000.0001) %MON obc_N_vVel_sd                =   2.7490521042747E-14
(PID.TID 0000.0001) %MON obc_N_vVel_Int               =  -7.6331879451659E+00
(PID.TID 0000.0001) // =======================================================
(PID.TID 0000.0001) // End OBCS MONITOR field statistics
(PID.TID 0000.0001) // =======================================================
 cg2d: Sum(rhs),rhsMax =   3.00979206400720E+00  4.53045740420907E+02
(PID.TID 0000.0001)      cg2d_init_res =   2.68965877527598E-06
(PID.TID 0000.0001)      cg2d_iters(min,last) =      -1      74
(PID.TID 0000.0001)      cg2d_last_res =   8.14170590112256E-12
(PID.TID 0000.0001) // =======================================================
(PID.TID 0000.0001) // Begin MONITOR dynamic field statistics
(PID.TID 0000.0001) // =======================================================
(PID.TID 0000.0001) %MON time_tsnumber                =                  1010
(PID.TID 0000.0001) %MON time_secondsf                =   1.0100000000000E+05
(PID.TID 0000.0001) %MON dynstat_eta_max              =   5.7982663640728E+00
(PID.TID 0000.0001) %MON dynstat_eta_min              =  -1.4172956636673E+01
(PID.TID 0000.0001) %MON dynstat_eta_mean             =  -2.5251360632428E+00
(PID.TID 0000.0001) %MON dynstat_eta_sd               =   4.9413839487230E+00
(PID.TID 0000.0001) %MON dynstat_eta_del2             =   1.9058457499561E-01
(PID.TID 0000.0001) %MON dynstat_uvel_max             =   4.5630432560024E-03
(PID.TID 0000.0001) %MON dynstat_uvel_min             =  -2.1351752546072E-02
(PID.TID 0000.0001) %MON dynstat_uvel_mean            =   4.1238048278975E-11
(PID.TID 0000.0001) %MON dynstat_uvel_sd              =   5.7853923544338E-04
(PID.TID 0000.0001) %MON dynstat_uvel_del2            =   8.9836737856038E-07
(PID.TID 0000.0001) %MON dynstat_vvel_max             =   1.5965029364212E-02
(PID.TID 0000.0001) %MON dynstat_vvel_min             =  -5.8021322843578E-03
(PID.TID 0000.0001) %MON dynstat_vvel_mean            =  -1.1087017491906E-07
(PID.TID 0000.0001) %MON dynstat_vvel_sd              =   3.0274222223503E-04
(PID.TID 0000.0001) %MON dynstat_vvel_del2            =   7.9267495706652E-07
(PID.TID 0000.0001) %MON dynstat_wvel_max             =   8.7593301884393E-04
(PID.TID 0000.0001) %MON dynstat_wvel_min             =  -9.6249115356250E-04
(PID.TID 0000.0001) %MON dynstat_wvel_mean            =   2.1290684998865E-10
(PID.TID 0000.0001) %MON dynstat_wvel_sd              =   1.5255282037496E-05
(PID.TID 0000.0001) %MON dynstat_wvel_del2            =   6.4481459110586E-08
(PID.TID 0000.0001) %MON dynstat_theta_max            =   1.2000000000000E+00
(PID.TID 0000.0001) %MON dynstat_theta_min            =  -1.0000000000000E+00
(PID.TID 0000.0001) %MON dynstat_theta_mean           =   5.6522043382439E-01
(PID.TID 0000.0001) %MON dynstat_theta_sd             =   8.4897854235465E-01
(PID.TID 0000.0001) %MON dynstat_theta_del2           =   2.2284721398574E-06
(PID.TID 0000.0001) %MON dynstat_salt_max             =   3.4700000000000E+01
(PID.TID 0000.0001) %MON dynstat_salt_min             =   3.4000000000000E+01
(PID.TID 0000.0001) %MON dynstat_salt_mean            =   3.4498002097142E+01
(PID.TID 0000.0001) %MON dynstat_salt_sd              =   2.7012734748487E-01
(PID.TID 0000.0001) %MON dynstat_salt_del2            =   8.8003070322655E-07
(PID.TID 0000.0001) %MON advcfl_uvel_max              =   2.1351752546072E-03
(PID.TID 0000.0001) %MON advcfl_vvel_max              =   1.5965029364212E-03
(PID.TID 0000.0001) %MON advcfl_wvel_max              =   4.8124557678125E-03
(PID.TID 0000.0001) %MON advcfl_W_hf_max              =   4.8124557678125E-03
(PID.TID 0000.0001) %MON pe_b_mean                    =  -6.8227867901562E-01
(PID.TID 0000.0001) %MON ke_max                       =   1.6207925014100E-04
(PID.TID 0000.0001) %MON ke_mean                      =   2.1003286708281E-07
(PID.TID 0000.0001) %MON ke_vol                       =   4.6183006625648E+12
(PID.TID 0000.0001) // =======================================================
(PID.TID 0000.0001) // End MONITOR dynamic field statistics
(PID.TID 0000.0001) // =======================================================
(PID.TID 0000.0001) // =======================================================
(PID.TID 0000.0001) // Begin OBCS MONITOR field statistics
(PID.TID 0000.0001) // =======================================================
(PID.TID 0000.0001) %MON obc_N_vVel_max               =  -1.2630529435495E-07
(PID.TID 0000.0001) %MON obc_N_vVel_min               =  -1.2630529435495E-07
(PID.TID 0000.0001) %MON obc_N_vVel_mean              =  -1.2630529435495E-07
(PID.TID 0000.0001) %MON obc_N_vVel_sd                =  -1.9879294811569E-28
(PID.TID 0000.0001) %MON obc_N_vVel_Int               =  -8.3361494274270E+00
(PID.TID 0000.0001) // =======================================================
(PID.TID 0000.0001) // End OBCS MONITOR field statistics
(PID.TID 0000.0001) // =======================================================
 cg2d: Sum(rhs),rhsMax =   3.00978625806900E+00  4.53045728215529E+02
(PID.TID 0000.0001)      cg2d_init_res =   2.69442749442406E-06
(PID.TID 0000.0001)      cg2d_iters(min,last) =      -1      74
(PID.TID 0000.0001)      cg2d_last_res =   8.16404804472907E-12
(PID.TID 0000.0001) // =======================================================
(PID.TID 0000.0001) // Begin MONITOR dynamic field statistics
(PID.TID 0000.0001) // =======================================================
(PID.TID 0000.0001) %MON time_tsnumber                =                  1011
(PID.TID 0000.0001) %MON time_secondsf                =   1.0110000000000E+05
(PID.TID 0000.0001) %MON dynstat_eta_max              =   5.7982693141692E+00
(PID.TID 0000.0001) %MON dynstat_eta_min              =  -1.4172946239701E+01
(PID.TID 0000.0001) %MON dynstat_eta_mean             =  -2.5251311241851E+00
(PID.TID 0000.0001) %MON dynstat_eta_sd               =   4.9413824949947E+00
(PID.TID 0000.0001) %MON dynstat_eta_del2             =   1.9058458824273E-01
(PID.TID 0000.0001) %MON dynstat_uvel_max             =   4.5746125201687E-03
(PID.TID 0000.0001) %MON dynstat_uvel_min             =  -2.1409652732475E-02
(PID.TID 0000.0001) %MON dynstat_uvel_mean            =   9.6982747017766E-12
(PID.TID 0000.0001) %MON dynstat_uvel_sd              =   5.8006808253576E-04
(PID.TID 0000.0001) %MON dynstat_uvel_del2            =   9.0055617341458E-07
(PID.TID 0000.0001) %MON dynstat_vvel_max             =   1.6000141347286E-02
(PID.TID 0000.0001) %MON dynstat_vvel_min             =  -5.8153454979450E-03
(PID.TID 0000.0001) %MON dynstat_vvel_mean            =  -1.1992971245853E-07
(PID.TID 0000.0001) %MON dynstat_vvel_sd              =   3.0337269377211E-04
(PID.TID 0000.0001) %MON dynstat_vvel_del2            =   7.9428423764144E-07
(PID.TID 0000.0001) %MON dynstat_wvel_max             =   8.7817127822142E-04
(PID.TID 0000.0001) %MON dynstat_wvel_min             =  -9.6551282454969E-04
(PID.TID 0000.0001) %MON dynstat_wvel_mean            =   2.2432596803055E-10
(PID.TID 0000.0001) %MON dynstat_wvel_sd              =   1.5272801900070E-05
(PID.TID 0000.0001) %MON dynstat_wvel_del2            =   6.4452498056234E-08
(PID.TID 0000.0001) %MON dynstat_theta_max            =   1.2000000000000E+00
(PID.TID 0000.0001) %MON dynstat_theta_min            =  -1.0000000000000E+00
(PID.TID 0000.0001) %MON dynstat_theta_mean           =   5.6521990055403E-01
(PID.TID 0000.0001) %MON dynstat_theta_sd             =   8.4897831770020E-01
(PID.TID 0000.0001) %MON dynstat_theta_del2           =   2.2333576793242E-06
(PID.TID 0000.0001) %MON dynstat_salt_max             =   3.4700000000000E+01
(PID.TID 0000.0001) %MON dynstat_salt_min             =   3.4000000000000E+01
(PID.TID 0000.0001) %MON dynstat_salt_mean            =   3.4498001884435E+01
(PID.TID 0000.0001) %MON dynstat_salt_sd              =   2.7012726345105E-01
(PID.TID 0000.0001) %MON dynstat_salt_del2            =   8.8196043874853E-07
(PID.TID 0000.0001) %MON advcfl_uvel_max              =   2.1409652732475E-03
(PID.TID 0000.0001) %MON advcfl_vvel_max              =   1.6000141347286E-03
(PID.TID 0000.0001) %MON advcfl_wvel_max              =   4.8275641227484E-03
(PID.TID 0000.0001) %MON advcfl_W_hf_max              =   4.8275641227484E-03
(PID.TID 0000.0001) %MON pe_b_mean                    =  -6.8227724274509E-01
(PID.TID 0000.0001) %MON ke_max                       =   1.6306656641424E-04
(PID.TID 0000.0001) %MON ke_mean                      =   2.1109294911328E-07
(PID.TID 0000.0001) %MON ke_vol                       =   4.6183006917843E+12
(PID.TID 0000.0001) // =======================================================
(PID.TID 0000.0001) // End MONITOR dynamic field statistics
(PID.TID 0000.0001) // =======================================================
(PID.TID 0000.0001) // =======================================================
(PID.TID 0000.0001) // Begin OBCS MONITOR field statistics
(PID.TID 0000.0001) // =======================================================
(PID.TID 0000.0001) %MON obc_N_vVel_max               =  -1.3593386555153E-07
(PID.TID 0000.0001) %MON obc_N_vVel_min               =  -1.3593386555153E-07
(PID.TID 0000.0001) %MON obc_N_vVel_mean              =  -1.3593386555153E-07
(PID.TID 0000.0001) %MON obc_N_vVel_sd                =   1.0204393146541E-14
(PID.TID 0000.0001) %MON obc_N_vVel_Int               =  -8.9716351264012E+00
(PID.TID 0000.0001) // =======================================================
(PID.TID 0000.0001) // End OBCS MONITOR field statistics
(PID.TID 0000.0001) // =======================================================
 cg2d: Sum(rhs),rhsMax =   3.00978042645078E+00  4.53045716519173E+02
(PID.TID 0000.0001)      cg2d_init_res =   2.69880627069820E-06
(PID.TID 0000.0001)      cg2d_iters(min,last) =      -1      74
(PID.TID 0000.0001)      cg2d_last_res =   8.18620896323684E-12
(PID.TID 0000.0001) // =======================================================
(PID.TID 0000.0001) // Begin MONITOR dynamic field statistics
(PID.TID 0000.0001) // =======================================================
(PID.TID 0000.0001) %MON time_tsnumber                =                  1012
(PID.TID 0000.0001) %MON time_secondsf                =   1.0120000000000E+05
(PID.TID 0000.0001) %MON dynstat_eta_max              =   5.7982722789410E+00
(PID.TID 0000.0001) %MON dynstat_eta_min              =  -1.4172935803692E+01
(PID.TID 0000.0001) %MON dynstat_eta_mean             =  -2.5251261664199E+00
(PID.TID 0000.0001) %MON dynstat_eta_sd               =   4.9413810371694E+00
(PID.TID 0000.0001) %MON dynstat_eta_del2             =   1.9058460153775E-01
(PID.TID 0000.0001) %MON dynstat_uvel_max             =   4.5862090039028E-03
(PID.TID 0000.0001) %MON dynstat_uvel_min             =  -2.1467652122181E-02
(PID.TID 0000.0001) %MON dynstat_uvel_mean            =  -2.5863610118852E-11
(PID.TID 0000.0001) %MON dynstat_uvel_sd              =   5.8160012741423E-04
(PID.TID 0000.0001) %MON dynstat_uvel_del2            =   9.0275063719135E-07
(PID.TID 0000.0001) %MON dynstat_vvel_max             =   1.6035291078317E-02
(PID.TID 0000.0001) %MON dynstat_vvel_min             =  -5.8285819171342E-03
(PID.TID 0000.0001) %MON dynstat_vvel_mean            =  -1.2779098665135E-07
(PID.TID 0000.0001) %MON dynstat_vvel_sd              =   3.0400221892985E-04
(PID.TID 0000.0001) %MON dynstat_vvel_del2            =   7.9589055651805E-07
(PID.TID 0000.0001) %MON dynstat_wvel_max             =   8.8041331734231E-04
(PID.TID 0000.0001) %MON dynstat_wvel_min             =  -9.6854247307325E-04
(PID.TID 0000.0001) %MON dynstat_wvel_mean            =   2.3601885502476E-10
(PID.TID 0000.0001) %MON dynstat_wvel_sd              =   1.5284452587463E-05
(PID.TID 0000.0001) %MON dynstat_wvel_del2            =   6.4403006734676E-08
(PID.TID 0000.0001) %MON dynstat_theta_max            =   1.2000000000000E+00
(PID.TID 0000.0001) %MON dynstat_theta_min            =  -1.0000000000000E+00
(PID.TID 0000.0001) %MON dynstat_theta_mean           =   5.6521936626500E-01
(PID.TID 0000.0001) %MON dynstat_theta_sd             =   8.4897809254806E-01
(PID.TID 0000.0001) %MON dynstat_theta_del2           =   2.2382621552683E-06
(PID.TID 0000.0001) %MON dynstat_salt_max             =   3.4700000000000E+01
(PID.TID 0000.0001) %MON dynstat_salt_min             =   3.4000000000000E+01
(PID.TID 0000.0001) %MON dynstat_salt_mean            =   3.4498001671319E+01
(PID.TID 0000.0001) %MON dynstat_salt_sd              =   2.7012717922453E-01
(PID.TID 0000.0001) %MON dynstat_salt_del2            =   8.8389643639085E-07
(PID.TID 0000.0001) %MON advcfl_uvel_max              =   2.1467652122181E-03
(PID.TID 0000.0001) %MON advcfl_vvel_max              =   1.6035291078317E-03
(PID.TID 0000.0001) %MON advcfl_wvel_max              =   4.8427123653663E-03
(PID.TID 0000.0001) %MON advcfl_W_hf_max              =   4.8427123653663E-03
(PID.TID 0000.0001) %MON pe_b_mean                    =  -6.8227580202753E-01
(PID.TID 0000.0001) %MON ke_max                       =   1.6405907873908E-04
(PID.TID 0000.0001) %MON ke_mean                      =   2.1215725916499E-07
(PID.TID 0000.0001) %MON ke_vol                       =   4.6183007211223E+12
(PID.TID 0000.0001) // =======================================================
(PID.TID 0000.0001) // End MONITOR dynamic field statistics
(PID.TID 0000.0001) // =======================================================
(PID.TID 0000.0001) // =======================================================
(PID.TID 0000.0001) // Begin OBCS MONITOR field statistics
(PID.TID 0000.0001) // =======================================================
(PID.TID 0000.0001) %MON obc_N_vVel_max               =  -1.4443717099975E-07
(PID.TID 0000.0001) %MON obc_N_vVel_min               =  -1.4443717099975E-07
(PID.TID 0000.0001) %MON obc_N_vVel_mean              =  -1.4443717099975E-07
(PID.TID 0000.0001) %MON obc_N_vVel_sd                =  -4.8909376123703E-28
(PID.TID 0000.0001) %MON obc_N_vVel_Int               =  -9.5328532859835E+00
(PID.TID 0000.0001) // =======================================================
(PID.TID 0000.0001) // End OBCS MONITOR field statistics
(PID.TID 0000.0001) // =======================================================
 cg2d: Sum(rhs),rhsMax =   3.00977457057902E+00  4.53045705357830E+02
(PID.TID 0000.0001)      cg2d_init_res =   2.70284359025320E-06
(PID.TID 0000.0001)      cg2d_iters(min,last) =      -1      74
(PID.TID 0000.0001)      cg2d_last_res =   8.20822550035680E-12
(PID.TID 0000.0001) // =======================================================
(PID.TID 0000.0001) // Begin MONITOR dynamic field statistics
(PID.TID 0000.0001) // =======================================================
(PID.TID 0000.0001) %MON time_tsnumber                =                  1013
(PID.TID 0000.0001) %MON time_secondsf                =   1.0130000000000E+05
(PID.TID 0000.0001) %MON dynstat_eta_max              =   5.7982752561385E+00
(PID.TID 0000.0001) %MON dynstat_eta_min              =  -1.4172925331187E+01
(PID.TID 0000.0001) %MON dynstat_eta_mean             =  -2.5251211912890E+00
(PID.TID 0000.0001) %MON dynstat_eta_sd               =   4.9413795757734E+00
(PID.TID 0000.0001) %MON dynstat_eta_del2             =   1.9058461488218E-01
(PID.TID 0000.0001) %MON dynstat_uvel_max             =   4.5978327679288E-03
(PID.TID 0000.0001) %MON dynstat_uvel_min             =  -2.1525750590139E-02
(PID.TID 0000.0001) %MON dynstat_uvel_mean            =  -6.5040878783065E-11
(PID.TID 0000.0001) %MON dynstat_uvel_sd              =   5.8313537258496E-04
(PID.TID 0000.0001) %MON dynstat_uvel_del2            =   9.0495078380783E-07
(PID.TID 0000.0001) %MON dynstat_vvel_max             =   1.6070478478728E-02
(PID.TID 0000.0001) %MON dynstat_vvel_min             =  -5.8418415500849E-03
(PID.TID 0000.0001) %MON dynstat_vvel_mean            =  -1.3436573222308E-07
(PID.TID 0000.0001) %MON dynstat_vvel_sd              =   3.0463105230384E-04
(PID.TID 0000.0001) %MON dynstat_vvel_del2            =   7.9749731315674E-07
(PID.TID 0000.0001) %MON dynstat_wvel_max             =   8.8265913618530E-04
(PID.TID 0000.0001) %MON dynstat_wvel_min             =  -9.7158010525681E-04
(PID.TID 0000.0001) %MON dynstat_wvel_mean            =   2.4788051361188E-10
(PID.TID 0000.0001) %MON dynstat_wvel_sd              =   1.5291081197764E-05
(PID.TID 0000.0001) %MON dynstat_wvel_del2            =   6.4341061368677E-08
(PID.TID 0000.0001) %MON dynstat_theta_max            =   1.2000000000000E+00
(PID.TID 0000.0001) %MON dynstat_theta_min            =  -1.0000000000000E+00
(PID.TID 0000.0001) %MON dynstat_theta_mean           =   5.6521883095627E-01
(PID.TID 0000.0001) %MON dynstat_theta_sd             =   8.4897786689825E-01
(PID.TID 0000.0001) %MON dynstat_theta_del2           =   2.2431814530464E-06
(PID.TID 0000.0001) %MON dynstat_salt_max             =   3.4700000000000E+01
(PID.TID 0000.0001) %MON dynstat_salt_min             =   3.4000000000000E+01
(PID.TID 0000.0001) %MON dynstat_salt_mean            =   3.4498001457794E+01
(PID.TID 0000.0001) %MON dynstat_salt_sd              =   2.7012709480534E-01
(PID.TID 0000.0001) %MON dynstat_salt_del2            =   8.8583774932738E-07
(PID.TID 0000.0001) %MON advcfl_uvel_max              =   2.1525750590139E-03
(PID.TID 0000.0001) %MON advcfl_vvel_max              =   1.6070478478728E-03
(PID.TID 0000.0001) %MON advcfl_wvel_max              =   4.8579005262841E-03
(PID.TID 0000.0001) %MON advcfl_W_hf_max              =   4.8579005262841E-03
(PID.TID 0000.0001) %MON pe_b_mean                    =  -6.8227435714253E-01
(PID.TID 0000.0001) %MON ke_max                       =   1.6505680935957E-04
(PID.TID 0000.0001) %MON ke_mean                      =   2.1322588882117E-07
(PID.TID 0000.0001) %MON ke_vol                       =   4.6183007505715E+12
(PID.TID 0000.0001) // =======================================================
(PID.TID 0000.0001) // End MONITOR dynamic field statistics
(PID.TID 0000.0001) // =======================================================
(PID.TID 0000.0001) // =======================================================
(PID.TID 0000.0001) // Begin OBCS MONITOR field statistics
(PID.TID 0000.0001) // =======================================================
(PID.TID 0000.0001) %MON obc_N_vVel_max               =  -1.5172220089557E-07
(PID.TID 0000.0001) %MON obc_N_vVel_min               =  -1.5172220089557E-07
(PID.TID 0000.0001) %MON obc_N_vVel_mean              =  -1.5172220089557E-07
(PID.TID 0000.0001) %MON obc_N_vVel_sd                =   1.3987047740492E-14
(PID.TID 0000.0001) %MON obc_N_vVel_Int               =  -1.0013665259108E+01
(PID.TID 0000.0001) // =======================================================
(PID.TID 0000.0001) // End OBCS MONITOR field statistics
(PID.TID 0000.0001) // =======================================================
 cg2d: Sum(rhs),rhsMax =   3.00976869201797E+00  4.53045694753272E+02
(PID.TID 0000.0001)      cg2d_init_res =   2.70660149234320E-06
(PID.TID 0000.0001)      cg2d_iters(min,last) =      -1      74
(PID.TID 0000.0001)      cg2d_last_res =   8.23012284592881E-12
(PID.TID 0000.0001) // =======================================================
(PID.TID 0000.0001) // Begin MONITOR dynamic field statistics
(PID.TID 0000.0001) // =======================================================
(PID.TID 0000.0001) %MON time_tsnumber                =                  1014
(PID.TID 0000.0001) %MON time_secondsf                =   1.0140000000000E+05
(PID.TID 0000.0001) %MON dynstat_eta_max              =   5.7982782433836E+00
(PID.TID 0000.0001) %MON dynstat_eta_min              =  -1.4172914824881E+01
(PID.TID 0000.0001) %MON dynstat_eta_mean             =  -2.5251162002258E+00
(PID.TID 0000.0001) %MON dynstat_eta_sd               =   4.9413781113490E+00
(PID.TID 0000.0001) %MON dynstat_eta_del2             =   1.9058462827747E-01
(PID.TID 0000.0001) %MON dynstat_uvel_max             =   4.6094838730077E-03
(PID.TID 0000.0001) %MON dynstat_uvel_min             =  -2.1583948009651E-02
(PID.TID 0000.0001) %MON dynstat_uvel_mean            =  -1.0738364748791E-10
(PID.TID 0000.0001) %MON dynstat_uvel_sd              =   5.8467382041986E-04
(PID.TID 0000.0001) %MON dynstat_uvel_del2            =   9.0715662654095E-07
(PID.TID 0000.0001) %MON dynstat_vvel_max             =   1.6105703468276E-02
(PID.TID 0000.0001) %MON dynstat_vvel_min             =  -5.8551244057794E-03
(PID.TID 0000.0001) %MON dynstat_vvel_mean            =  -1.3957742737927E-07
(PID.TID 0000.0001) %MON dynstat_vvel_sd              =   3.0525951078022E-04
(PID.TID 0000.0001) %MON dynstat_vvel_del2            =   7.9910800864702E-07
(PID.TID 0000.0001) %MON dynstat_wvel_max             =   8.8490873470953E-04
(PID.TID 0000.0001) %MON dynstat_wvel_min             =  -9.7462572701687E-04
(PID.TID 0000.0001) %MON dynstat_wvel_mean            =   2.5980264907091E-10
(PID.TID 0000.0001) %MON dynstat_wvel_sd              =   1.5293716779997E-05
(PID.TID 0000.0001) %MON dynstat_wvel_del2            =   6.4275215063070E-08
(PID.TID 0000.0001) %MON dynstat_theta_max            =   1.2000000000000E+00
(PID.TID 0000.0001) %MON dynstat_theta_min            =  -1.0000000000000E+00
(PID.TID 0000.0001) %MON dynstat_theta_mean           =   5.6521829462670E-01
(PID.TID 0000.0001) %MON dynstat_theta_sd             =   8.4897764075432E-01
(PID.TID 0000.0001) %MON dynstat_theta_del2           =   2.2481120002251E-06
(PID.TID 0000.0001) %MON dynstat_salt_max             =   3.4700000000000E+01
(PID.TID 0000.0001) %MON dynstat_salt_min             =   3.4000000000000E+01
(PID.TID 0000.0001) %MON dynstat_salt_mean            =   3.4498001243860E+01
(PID.TID 0000.0001) %MON dynstat_salt_sd              =   2.7012701019435E-01
(PID.TID 0000.0001) %MON dynstat_salt_del2            =   8.8778339608582E-07
(PID.TID 0000.0001) %MON advcfl_uvel_max              =   2.1583948009651E-03
(PID.TID 0000.0001) %MON advcfl_vvel_max              =   1.6105703468276E-03
(PID.TID 0000.0001) %MON advcfl_wvel_max              =   4.8731286350844E-03
(PID.TID 0000.0001) %MON advcfl_W_hf_max              =   4.8731286350844E-03
(PID.TID 0000.0001) %MON pe_b_mean                    =  -6.8227290838541E-01
(PID.TID 0000.0001) %MON ke_max                       =   1.6605978058176E-04
(PID.TID 0000.0001) %MON ke_mean                      =   2.1429894929372E-07
(PID.TID 0000.0001) %MON ke_vol                       =   4.6183007801237E+12
(PID.TID 0000.0001) // =======================================================
(PID.TID 0000.0001) // End MONITOR dynamic field statistics
(PID.TID 0000.0001) // =======================================================
(PID.TID 0000.0001) // =======================================================
(PID.TID 0000.0001) // Begin OBCS MONITOR field statistics
(PID.TID 0000.0001) // =======================================================
(PID.TID 0000.0001) %MON obc_N_vVel_max               =  -1.5770691125540E-07
(PID.TID 0000.0001) %MON obc_N_vVel_min               =  -1.5770691125541E-07
(PID.TID 0000.0001) %MON obc_N_vVel_mean              =  -1.5770691125541E-07
(PID.TID 0000.0001) %MON obc_N_vVel_sd                =  -3.5656512915990E-28
(PID.TID 0000.0001) %MON obc_N_vVel_Int               =  -1.0408656142857E+01
(PID.TID 0000.0001) // =======================================================
(PID.TID 0000.0001) // End OBCS MONITOR field statistics
(PID.TID 0000.0001) // =======================================================
 cg2d: Sum(rhs),rhsMax =   3.00976279245549E+00  4.53045684722311E+02
(PID.TID 0000.0001)      cg2d_init_res =   2.71013980466496E-06
(PID.TID 0000.0001)      cg2d_iters(min,last) =      -1      74
(PID.TID 0000.0001)      cg2d_last_res =   8.25191557454229E-12
(PID.TID 0000.0001) // =======================================================
(PID.TID 0000.0001) // Begin MONITOR dynamic field statistics
(PID.TID 0000.0001) // =======================================================
(PID.TID 0000.0001) %MON time_tsnumber                =                  1015
(PID.TID 0000.0001) %MON time_secondsf                =   1.0150000000000E+05
(PID.TID 0000.0001) %MON dynstat_eta_max              =   5.7982812381727E+00
(PID.TID 0000.0001) %MON dynstat_eta_min              =  -1.4172904287583E+01
(PID.TID 0000.0001) %MON dynstat_eta_mean             =  -2.5251111947403E+00
(PID.TID 0000.0001) %MON dynstat_eta_sd               =   4.9413766444500E+00
(PID.TID 0000.0001) %MON dynstat_eta_del2             =   1.9058464172496E-01
(PID.TID 0000.0001) %MON dynstat_uvel_max             =   4.6211623799559E-03
(PID.TID 0000.0001) %MON dynstat_uvel_min             =  -2.1642244252174E-02
(PID.TID 0000.0001) %MON dynstat_uvel_mean            =  -1.5240070237179E-10
(PID.TID 0000.0001) %MON dynstat_uvel_sd              =   5.8621547317981E-04
(PID.TID 0000.0001) %MON dynstat_uvel_del2            =   9.0936817813644E-07
(PID.TID 0000.0001) %MON dynstat_vvel_max             =   1.6140965965006E-02
(PID.TID 0000.0001) %MON dynstat_vvel_min             =  -5.8684304940666E-03
(PID.TID 0000.0001) %MON dynstat_vvel_mean            =  -1.4336225300617E-07
(PID.TID 0000.0001) %MON dynstat_vvel_sd              =   3.0588795876322E-04
(PID.TID 0000.0001) %MON dynstat_vvel_del2            =   8.0072606920288E-07
(PID.TID 0000.0001) %MON dynstat_wvel_max             =   8.8716211281492E-04
(PID.TID 0000.0001) %MON dynstat_wvel_min             =  -9.7767934401607E-04
(PID.TID 0000.0001) %MON dynstat_wvel_mean            =   2.7167468832438E-10
(PID.TID 0000.0001) %MON dynstat_wvel_sd              =   1.5293510113818E-05
(PID.TID 0000.0001) %MON dynstat_wvel_del2            =   6.4213913746850E-08
(PID.TID 0000.0001) %MON dynstat_theta_max            =   1.2000000000000E+00
(PID.TID 0000.0001) %MON dynstat_theta_min            =  -1.0000000000000E+00
(PID.TID 0000.0001) %MON dynstat_theta_mean           =   5.6521775727476E-01
(PID.TID 0000.0001) %MON dynstat_theta_sd             =   8.4897741411801E-01
(PID.TID 0000.0001) %MON dynstat_theta_del2           =   2.2530503992473E-06
(PID.TID 0000.0001) %MON dynstat_salt_max             =   3.4700000000000E+01
(PID.TID 0000.0001) %MON dynstat_salt_min             =   3.4000000000000E+01
(PID.TID 0000.0001) %MON dynstat_salt_mean            =   3.4498001029516E+01
(PID.TID 0000.0001) %MON dynstat_salt_sd              =   2.7012692539204E-01
(PID.TID 0000.0001) %MON dynstat_salt_del2            =   8.8973240090456E-07
(PID.TID 0000.0001) %MON advcfl_uvel_max              =   2.1642244252174E-03
(PID.TID 0000.0001) %MON advcfl_vvel_max              =   1.6140965965006E-03
(PID.TID 0000.0001) %MON advcfl_wvel_max              =   4.8883967200803E-03
(PID.TID 0000.0001) %MON advcfl_W_hf_max              =   4.8883967200803E-03
(PID.TID 0000.0001) %MON pe_b_mean                    =  -6.8227145606409E-01
(PID.TID 0000.0001) %MON ke_max                       =   1.6706801477451E-04
(PID.TID 0000.0001) %MON ke_mean                      =   2.1537656711263E-07
(PID.TID 0000.0001) %MON ke_vol                       =   4.6183008097707E+12
(PID.TID 0000.0001) // =======================================================
(PID.TID 0000.0001) // End MONITOR dynamic field statistics
(PID.TID 0000.0001) // =======================================================
(PID.TID 0000.0001) // =======================================================
(PID.TID 0000.0001) // Begin OBCS MONITOR field statistics
(PID.TID 0000.0001) // =======================================================
(PID.TID 0000.0001) %MON obc_N_vVel_max               =  -1.6232121838612E-07
(PID.TID 0000.0001) %MON obc_N_vVel_min               =  -1.6232121838612E-07
(PID.TID 0000.0001) %MON obc_N_vVel_mean              =  -1.6232121838612E-07
(PID.TID 0000.0001) %MON obc_N_vVel_sd                =   2.3699556209291E-14
(PID.TID 0000.0001) %MON obc_N_vVel_Int               =  -1.0713200413484E+01
(PID.TID 0000.0001) // =======================================================
(PID.TID 0000.0001) // End OBCS MONITOR field statistics
(PID.TID 0000.0001) // =======================================================
 cg2d: Sum(rhs),rhsMax =   3.00975687368888E+00  4.53045675276755E+02
(PID.TID 0000.0001)      cg2d_init_res =   2.71352104143356E-06
(PID.TID 0000.0001)      cg2d_iters(min,last) =      -1      74
(PID.TID 0000.0001)      cg2d_last_res =   8.27359831768075E-12
(PID.TID 0000.0001) // =======================================================
(PID.TID 0000.0001) // Begin MONITOR dynamic field statistics
(PID.TID 0000.0001) // =======================================================
(PID.TID 0000.0001) %MON time_tsnumber                =                  1016
(PID.TID 0000.0001) %MON time_secondsf                =   1.0160000000000E+05
(PID.TID 0000.0001) %MON dynstat_eta_max              =   5.7982842379209E+00
(PID.TID 0000.0001) %MON dynstat_eta_min              =  -1.4172893722198E+01
(PID.TID 0000.0001) %MON dynstat_eta_mean             =  -2.5251061764060E+00
(PID.TID 0000.0001) %MON dynstat_eta_sd               =   4.9413751756338E+00
(PID.TID 0000.0001) %MON dynstat_eta_del2             =   1.9058465522579E-01
(PID.TID 0000.0001) %MON dynstat_uvel_max             =   4.6328683496872E-03
(PID.TID 0000.0001) %MON dynstat_uvel_min             =  -2.1700639187447E-02
(PID.TID 0000.0001) %MON dynstat_uvel_mean            =  -1.9956351127214E-10
(PID.TID 0000.0001) %MON dynstat_uvel_sd              =   5.8776033304703E-04
(PID.TID 0000.0001) %MON dynstat_uvel_del2            =   9.1158545091436E-07
(PID.TID 0000.0001) %MON dynstat_vvel_max             =   1.6176265884951E-02
(PID.TID 0000.0001) %MON dynstat_vvel_min             =  -5.8817598257273E-03
(PID.TID 0000.0001) %MON dynstat_vvel_mean            =  -1.4566994001380E-07
(PID.TID 0000.0001) %MON dynstat_vvel_sd              =   3.0651679202496E-04
(PID.TID 0000.0001) %MON dynstat_vvel_del2            =   8.0235468124694E-07
(PID.TID 0000.0001) %MON dynstat_wvel_max             =   8.8941927040147E-04
(PID.TID 0000.0001) %MON dynstat_wvel_min             =  -9.8074096169020E-04
(PID.TID 0000.0001) %MON dynstat_wvel_mean            =   2.8338468556494E-10
(PID.TID 0000.0001) %MON dynstat_wvel_sd              =   1.5291672048558E-05
(PID.TID 0000.0001) %MON dynstat_wvel_del2            =   6.4164943912429E-08
(PID.TID 0000.0001) %MON dynstat_theta_max            =   1.2000000000000E+00
(PID.TID 0000.0001) %MON dynstat_theta_min            =  -1.0000000000000E+00
(PID.TID 0000.0001) %MON dynstat_theta_mean           =   5.6521721889882E-01
(PID.TID 0000.0001) %MON dynstat_theta_sd             =   8.4897718699099E-01
(PID.TID 0000.0001) %MON dynstat_theta_del2           =   2.2579931397397E-06
(PID.TID 0000.0001) %MON dynstat_salt_max             =   3.4700000000000E+01
(PID.TID 0000.0001) %MON dynstat_salt_min             =   3.4000000000000E+01
(PID.TID 0000.0001) %MON dynstat_salt_mean            =   3.4498000814762E+01
(PID.TID 0000.0001) %MON dynstat_salt_sd              =   2.7012684039888E-01
(PID.TID 0000.0001) %MON dynstat_salt_del2            =   8.9168384394392E-07
(PID.TID 0000.0001) %MON advcfl_uvel_max              =   2.1700639187447E-03
(PID.TID 0000.0001) %MON advcfl_vvel_max              =   1.6176265884951E-03
(PID.TID 0000.0001) %MON advcfl_wvel_max              =   4.9037048084510E-03
(PID.TID 0000.0001) %MON advcfl_W_hf_max              =   4.9037048084510E-03
(PID.TID 0000.0001) %MON pe_b_mean                    =  -6.8227000049635E-01
(PID.TID 0000.0001) %MON ke_max                       =   1.6808153436867E-04
(PID.TID 0000.0001) %MON ke_mean                      =   2.1645887934390E-07
(PID.TID 0000.0001) %MON ke_vol                       =   4.6183008395032E+12
(PID.TID 0000.0001) // =======================================================
(PID.TID 0000.0001) // End MONITOR dynamic field statistics
(PID.TID 0000.0001) // =======================================================
(PID.TID 0000.0001) // =======================================================
(PID.TID 0000.0001) // Begin OBCS MONITOR field statistics
(PID.TID 0000.0001) // =======================================================
(PID.TID 0000.0001) %MON obc_N_vVel_max               =  -1.6550790212881E-07
(PID.TID 0000.0001) %MON obc_N_vVel_min               =  -1.6550790212881E-07
(PID.TID 0000.0001) %MON obc_N_vVel_mean              =  -1.6550790212881E-07
(PID.TID 0000.0001) %MON obc_N_vVel_sd                =  -2.6095518744711E-27
(PID.TID 0000.0001) %MON obc_N_vVel_Int               =  -1.0923521540501E+01
(PID.TID 0000.0001) // =======================================================
(PID.TID 0000.0001) // End OBCS MONITOR field statistics
(PID.TID 0000.0001) // =======================================================
 cg2d: Sum(rhs),rhsMax =   3.00975093760981E+00  4.53045666423223E+02
(PID.TID 0000.0001)      cg2d_init_res =   2.71680579278121E-06
(PID.TID 0000.0001)      cg2d_iters(min,last) =      -1      74
(PID.TID 0000.0001)      cg2d_last_res =   8.29520999893030E-12
(PID.TID 0000.0001) // =======================================================
(PID.TID 0000.0001) // Begin MONITOR dynamic field statistics
(PID.TID 0000.0001) // =======================================================
(PID.TID 0000.0001) %MON time_tsnumber                =                  1017
(PID.TID 0000.0001) %MON time_secondsf                =   1.0170000000000E+05
(PID.TID 0000.0001) %MON dynstat_eta_max              =   5.7982872399775E+00
(PID.TID 0000.0001) %MON dynstat_eta_min              =  -1.4172883131693E+01
(PID.TID 0000.0001) %MON dynstat_eta_mean             =  -2.5251011468470E+00
(PID.TID 0000.0001) %MON dynstat_eta_sd               =   4.9413737054593E+00
(PID.TID 0000.0001) %MON dynstat_eta_del2             =   1.9058466878105E-01
(PID.TID 0000.0001) %MON dynstat_uvel_max             =   4.6446018431858E-03
(PID.TID 0000.0001) %MON dynstat_uvel_min             =  -2.1759132683306E-02
(PID.TID 0000.0001) %MON dynstat_uvel_mean            =  -2.4831629614597E-10
(PID.TID 0000.0001) %MON dynstat_uvel_sd              =   5.8930840215615E-04
(PID.TID 0000.0001) %MON dynstat_uvel_del2            =   9.1380845677173E-07
(PID.TID 0000.0001) %MON dynstat_vvel_max             =   1.6211603142258E-02
(PID.TID 0000.0001) %MON dynstat_vvel_min             =  -5.8951124125519E-03
(PID.TID 0000.0001) %MON dynstat_vvel_mean            =  -1.4646450008374E-07
(PID.TID 0000.0001) %MON dynstat_vvel_sd              =   3.0714642108239E-04
(PID.TID 0000.0001) %MON dynstat_vvel_del2            =   8.0399664931568E-07
(PID.TID 0000.0001) %MON dynstat_wvel_max             =   8.9168020732600E-04
(PID.TID 0000.0001) %MON dynstat_wvel_min             =  -9.8381058523333E-04
(PID.TID 0000.0001) %MON dynstat_wvel_mean            =   2.9482066657140E-10
(PID.TID 0000.0001) %MON dynstat_wvel_sd              =   1.5289414589780E-05
(PID.TID 0000.0001) %MON dynstat_wvel_del2            =   6.4134960953210E-08
(PID.TID 0000.0001) %MON dynstat_theta_max            =   1.2000000000000E+00
(PID.TID 0000.0001) %MON dynstat_theta_min            =  -1.0000000000000E+00
(PID.TID 0000.0001) %MON dynstat_theta_mean           =   5.6521667949730E-01
(PID.TID 0000.0001) %MON dynstat_theta_sd             =   8.4897695937072E-01
(PID.TID 0000.0001) %MON dynstat_theta_del2           =   2.2629370628388E-06
(PID.TID 0000.0001) %MON dynstat_salt_max             =   3.4700000000000E+01
(PID.TID 0000.0001) %MON dynstat_salt_min             =   3.4000000000000E+01
(PID.TID 0000.0001) %MON dynstat_salt_mean            =   3.4498000599596E+01
(PID.TID 0000.0001) %MON dynstat_salt_sd              =   2.7012675521388E-01
(PID.TID 0000.0001) %MON dynstat_salt_del2            =   8.9363691399878E-07
(PID.TID 0000.0001) %MON advcfl_uvel_max              =   2.1759132683306E-03
(PID.TID 0000.0001) %MON advcfl_vvel_max              =   1.6211603142258E-03
(PID.TID 0000.0001) %MON advcfl_wvel_max              =   4.9190529261666E-03
(PID.TID 0000.0001) %MON advcfl_W_hf_max              =   4.9190529261666E-03
(PID.TID 0000.0001) %MON pe_b_mean                    =  -6.8226854200710E-01
(PID.TID 0000.0001) %MON ke_max                       =   1.6910036185770E-04
(PID.TID 0000.0001) %MON ke_mean                      =   2.1754602860201E-07
(PID.TID 0000.0001) %MON ke_vol                       =   4.6183008693121E+12
(PID.TID 0000.0001) // =======================================================
(PID.TID 0000.0001) // End MONITOR dynamic field statistics
(PID.TID 0000.0001) // =======================================================
(PID.TID 0000.0001) // =======================================================
(PID.TID 0000.0001) // Begin OBCS MONITOR field statistics
(PID.TID 0000.0001) // =======================================================
(PID.TID 0000.0001) %MON obc_N_vVel_max               =  -1.6722340607766E-07
(PID.TID 0000.0001) %MON obc_N_vVel_min               =  -1.6722340607766E-07
(PID.TID 0000.0001) %MON obc_N_vVel_mean              =  -1.6722340607766E-07
(PID.TID 0000.0001) %MON obc_N_vVel_sd                =  -2.7231478448229E-27
(PID.TID 0000.0001) %MON obc_N_vVel_Int               =  -1.1036744801126E+01
(PID.TID 0000.0001) // =======================================================
(PID.TID 0000.0001) // End OBCS MONITOR field statistics
(PID.TID 0000.0001) // =======================================================
 cg2d: Sum(rhs),rhsMax =   3.00974498618482E+00  4.53045658162939E+02
(PID.TID 0000.0001)      cg2d_init_res =   2.72004593481675E-06
(PID.TID 0000.0001)      cg2d_iters(min,last) =      -1      74
(PID.TID 0000.0001)      cg2d_last_res =   8.31671310198518E-12
(PID.TID 0000.0001) // =======================================================
(PID.TID 0000.0001) // Begin MONITOR dynamic field statistics
(PID.TID 0000.0001) // =======================================================
(PID.TID 0000.0001) %MON time_tsnumber                =                  1018
(PID.TID 0000.0001) %MON time_secondsf                =   1.0180000000000E+05
(PID.TID 0000.0001) %MON dynstat_eta_max              =   5.7982902416495E+00
(PID.TID 0000.0001) %MON dynstat_eta_min              =  -1.4172872519083E+01
(PID.TID 0000.0001) %MON dynstat_eta_mean             =  -2.5250961077198E+00
(PID.TID 0000.0001) %MON dynstat_eta_sd               =   4.9413722344801E+00
(PID.TID 0000.0001) %MON dynstat_eta_del2             =   1.9058468239170E-01
(PID.TID 0000.0001) %MON dynstat_uvel_max             =   4.6563629215104E-03
(PID.TID 0000.0001) %MON dynstat_uvel_min             =  -2.1817724605985E-02
(PID.TID 0000.0001) %MON dynstat_uvel_mean            =  -2.9807987269242E-10
(PID.TID 0000.0001) %MON dynstat_uvel_sd              =   5.9085968263155E-04
(PID.TID 0000.0001) %MON dynstat_uvel_del2            =   9.1603720749195E-07
(PID.TID 0000.0001) %MON dynstat_vvel_max             =   1.6246977648958E-02
(PID.TID 0000.0001) %MON dynstat_vvel_min             =  -5.9084882673446E-03
(PID.TID 0000.0001) %MON dynstat_vvel_mean            =  -1.4572481583989E-07
(PID.TID 0000.0001) %MON dynstat_vvel_sd              =   3.0777725491323E-04
(PID.TID 0000.0001) %MON dynstat_vvel_del2            =   8.0565428503457E-07
(PID.TID 0000.0001) %MON dynstat_wvel_max             =   8.9394492340609E-04
(PID.TID 0000.0001) %MON dynstat_wvel_min             =  -9.8688821961582E-04
(PID.TID 0000.0001) %MON dynstat_wvel_mean            =   3.0587138834881E-10
(PID.TID 0000.0001) %MON dynstat_wvel_sd              =   1.5287898366182E-05
(PID.TID 0000.0001) %MON dynstat_wvel_del2            =   6.4129139130440E-08
(PID.TID 0000.0001) %MON dynstat_theta_max            =   1.2000000000000E+00
(PID.TID 0000.0001) %MON dynstat_theta_min            =  -1.0000000000000E+00
(PID.TID 0000.0001) %MON dynstat_theta_mean           =   5.6521613906851E-01
(PID.TID 0000.0001) %MON dynstat_theta_sd             =   8.4897673125435E-01
(PID.TID 0000.0001) %MON dynstat_theta_del2           =   2.2678794977782E-06
(PID.TID 0000.0001) %MON dynstat_salt_max             =   3.4700000000000E+01
(PID.TID 0000.0001) %MON dynstat_salt_min             =   3.4000000000000E+01
(PID.TID 0000.0001) %MON dynstat_salt_mean            =   3.4498000384018E+01
(PID.TID 0000.0001) %MON dynstat_salt_sd              =   2.7012666983620E-01
(PID.TID 0000.0001) %MON dynstat_salt_del2            =   8.9559089547042E-07
(PID.TID 0000.0001) %MON advcfl_uvel_max              =   2.1817724605985E-03
(PID.TID 0000.0001) %MON advcfl_vvel_max              =   1.6246977648958E-03
(PID.TID 0000.0001) %MON advcfl_wvel_max              =   4.9344410980791E-03
(PID.TID 0000.0001) %MON advcfl_W_hf_max              =   4.9344410980791E-03
(PID.TID 0000.0001) %MON pe_b_mean                    =  -6.8226708092483E-01
(PID.TID 0000.0001) %MON ke_max                       =   1.7012451979836E-04
(PID.TID 0000.0001) %MON ke_mean                      =   2.1863815810905E-07
(PID.TID 0000.0001) %MON ke_vol                       =   4.6183008991877E+12
(PID.TID 0000.0001) // =======================================================
(PID.TID 0000.0001) // End MONITOR dynamic field statistics
(PID.TID 0000.0001) // =======================================================
(PID.TID 0000.0001) // =======================================================
(PID.TID 0000.0001) // Begin OBCS MONITOR field statistics
(PID.TID 0000.0001) // =======================================================
(PID.TID 0000.0001) %MON obc_N_vVel_max               =  -1.6743846401250E-07
(PID.TID 0000.0001) %MON obc_N_vVel_min               =  -1.6743846401251E-07
(PID.TID 0000.0001) %MON obc_N_vVel_mean              =  -1.6743846401250E-07
(PID.TID 0000.0001) %MON obc_N_vVel_sd                =   2.9777166713246E-14
(PID.TID 0000.0001) %MON obc_N_vVel_Int               =  -1.1050938624825E+01
(PID.TID 0000.0001) // =======================================================
(PID.TID 0000.0001) // End OBCS MONITOR field statistics
(PID.TID 0000.0001) // =======================================================
 cg2d: Sum(rhs),rhsMax =   3.00973902143539E+00  4.53045650491546E+02
(PID.TID 0000.0001)      cg2d_init_res =   2.72327685594820E-06
(PID.TID 0000.0001)      cg2d_iters(min,last) =      -1      74
(PID.TID 0000.0001)      cg2d_last_res =   8.33809912934494E-12
(PID.TID 0000.0001) // =======================================================
(PID.TID 0000.0001) // Begin MONITOR dynamic field statistics
(PID.TID 0000.0001) // =======================================================
(PID.TID 0000.0001) %MON time_tsnumber                =                  1019
(PID.TID 0000.0001) %MON time_secondsf                =   1.0190000000000E+05
(PID.TID 0000.0001) %MON dynstat_eta_max              =   5.7982932402412E+00
(PID.TID 0000.0001) %MON dynstat_eta_min              =  -1.4172861887385E+01
(PID.TID 0000.0001) %MON dynstat_eta_mean             =  -2.5250910606963E+00
(PID.TID 0000.0001) %MON dynstat_eta_sd               =   4.9413707632371E+00
(PID.TID 0000.0001) %MON dynstat_eta_del2             =   1.9058469605850E-01
(PID.TID 0000.0001) %MON dynstat_uvel_max             =   4.6681516457809E-03
(PID.TID 0000.0001) %MON dynstat_uvel_min             =  -2.1876414820034E-02
(PID.TID 0000.0001) %MON dynstat_uvel_mean            =  -3.4825376281828E-10
(PID.TID 0000.0001) %MON dynstat_uvel_sd              =   5.9241417662856E-04
(PID.TID 0000.0001) %MON dynstat_uvel_del2            =   9.1827171467157E-07
(PID.TID 0000.0001) %MON dynstat_vvel_max             =   1.6282389314968E-02
(PID.TID 0000.0001) %MON dynstat_vvel_min             =  -5.9218874040168E-03
(PID.TID 0000.0001) %MON dynstat_vvel_mean            =  -1.4344508504104E-07
(PID.TID 0000.0001) %MON dynstat_vvel_sd              =   3.0840968573020E-04
(PID.TID 0000.0001) %MON dynstat_vvel_del2            =   8.0732933272914E-07
(PID.TID 0000.0001) %MON dynstat_wvel_max             =   8.9621341844873E-04
(PID.TID 0000.0001) %MON dynstat_wvel_min             =  -9.8997386951020E-04
(PID.TID 0000.0001) %MON dynstat_wvel_mean            =   3.1642801391409E-10
(PID.TID 0000.0001) %MON dynstat_wvel_sd              =   1.5288189232987E-05
(PID.TID 0000.0001) %MON dynstat_wvel_del2            =   6.4150971056595E-08
(PID.TID 0000.0001) %MON dynstat_theta_max            =   1.2000000000000E+00
(PID.TID 0000.0001) %MON dynstat_theta_min            =  -1.0000000000000E+00
(PID.TID 0000.0001) %MON dynstat_theta_mean           =   5.6521559761060E-01
(PID.TID 0000.0001) %MON dynstat_theta_sd             =   8.4897650263804E-01
(PID.TID 0000.0001) %MON dynstat_theta_del2           =   2.2728183265606E-06
(PID.TID 0000.0001) %MON dynstat_salt_max             =   3.4700000000000E+01
(PID.TID 0000.0001) %MON dynstat_salt_min             =   3.4000000000000E+01
(PID.TID 0000.0001) %MON dynstat_salt_mean            =   3.4498000168027E+01
(PID.TID 0000.0001) %MON dynstat_salt_sd              =   2.7012658426415E-01
(PID.TID 0000.0001) %MON dynstat_salt_del2            =   8.9754521733723E-07
(PID.TID 0000.0001) %MON advcfl_uvel_max              =   2.1876414820034E-03
(PID.TID 0000.0001) %MON advcfl_vvel_max              =   1.6282389314968E-03
(PID.TID 0000.0001) %MON advcfl_wvel_max              =   4.9498693475510E-03
(PID.TID 0000.0001) %MON advcfl_W_hf_max              =   4.9498693475510E-03
(PID.TID 0000.0001) %MON pe_b_mean                    =  -6.8226561757799E-01
(PID.TID 0000.0001) %MON ke_max                       =   1.7115403081221E-04
(PID.TID 0000.0001) %MON ke_mean                      =   2.1973540702287E-07
(PID.TID 0000.0001) %MON ke_vol                       =   4.6183009291201E+12
(PID.TID 0000.0001) // =======================================================
(PID.TID 0000.0001) // End MONITOR dynamic field statistics
(PID.TID 0000.0001) // =======================================================
(PID.TID 0000.0001) // =======================================================
(PID.TID 0000.0001) // Begin OBCS MONITOR field statistics
(PID.TID 0000.0001) // =======================================================
(PID.TID 0000.0001) %MON obc_N_vVel_max               =  -1.6613865083463E-07
(PID.TID 0000.0001) %MON obc_N_vVel_min               =  -1.6613865083463E-07
(PID.TID 0000.0001) %MON obc_N_vVel_mean              =  -1.6613865083463E-07
(PID.TID 0000.0001) %MON obc_N_vVel_sd                =   2.3766034758416E-14
(PID.TID 0000.0001) %MON obc_N_vVel_Int               =  -1.0965150955085E+01
(PID.TID 0000.0001) // =======================================================
(PID.TID 0000.0001) // End OBCS MONITOR field statistics
(PID.TID 0000.0001) // =======================================================
 cg2d: Sum(rhs),rhsMax =   3.00973304541469E+00  4.53045643399198E+02
(PID.TID 0000.0001)      cg2d_init_res =   2.72652291768172E-06
(PID.TID 0000.0001)      cg2d_iters(min,last) =      -1      74
(PID.TID 0000.0001)      cg2d_last_res =   8.35930414855047E-12
(PID.TID 0000.0001) // =======================================================
(PID.TID 0000.0001) // Begin MONITOR dynamic field statistics
(PID.TID 0000.0001) // =======================================================
(PID.TID 0000.0001) %MON time_tsnumber                =                  1020
(PID.TID 0000.0001) %MON time_secondsf                =   1.0200000000000E+05
(PID.TID 0000.0001) %MON dynstat_eta_max              =   5.7982962330615E+00
(PID.TID 0000.0001) %MON dynstat_eta_min              =  -1.4172851239592E+01
(PID.TID 0000.0001) %MON dynstat_eta_mean             =  -2.5250860074439E+00
(PID.TID 0000.0001) %MON dynstat_eta_sd               =   4.9413692922503E+00
(PID.TID 0000.0001) %MON dynstat_eta_del2             =   1.9058470978195E-01
(PID.TID 0000.0001) %MON dynstat_uvel_max             =   4.6799680772125E-03
(PID.TID 0000.0001) %MON dynstat_uvel_min             =  -2.1935203188314E-02
(PID.TID 0000.0001) %MON dynstat_uvel_mean            =  -3.9821776649359E-10
(PID.TID 0000.0001) %MON dynstat_uvel_sd              =   5.9397188637349E-04
(PID.TID 0000.0001) %MON dynstat_uvel_del2            =   9.2051198985087E-07
(PID.TID 0000.0001) %MON dynstat_vvel_max             =   1.6317838048033E-02
(PID.TID 0000.0001) %MON dynstat_vvel_min             =  -5.9353098375201E-03
(PID.TID 0000.0001) %MON dynstat_vvel_mean            =  -1.3963510931067E-07
(PID.TID 0000.0001) %MON dynstat_vvel_sd              =   3.0904407535165E-04
(PID.TID 0000.0001) %MON dynstat_vvel_del2            =   8.0902293373200E-07
(PID.TID 0000.0001) %MON dynstat_wvel_max             =   8.9848569221436E-04
(PID.TID 0000.0001) %MON dynstat_wvel_min             =  -9.9306753936866E-04
(PID.TID 0000.0001) %MON dynstat_wvel_mean            =   3.2638486721185E-10
(PID.TID 0000.0001) %MON dynstat_wvel_sd              =   1.5291225661040E-05
(PID.TID 0000.0001) %MON dynstat_wvel_del2            =   6.4202227562961E-08
(PID.TID 0000.0001) %MON dynstat_theta_max            =   1.2000000000000E+00
(PID.TID 0000.0001) %MON dynstat_theta_min            =  -1.0000000000000E+00
(PID.TID 0000.0001) %MON dynstat_theta_mean           =   5.6521505512128E-01
(PID.TID 0000.0001) %MON dynstat_theta_sd             =   8.4897627352012E-01
(PID.TID 0000.0001) %MON dynstat_theta_del2           =   2.2777520316681E-06
(PID.TID 0000.0001) %MON dynstat_salt_max             =   3.4700000000000E+01
(PID.TID 0000.0001) %MON dynstat_salt_min             =   3.4000000000000E+01
(PID.TID 0000.0001) %MON dynstat_salt_mean            =   3.4497999951624E+01
(PID.TID 0000.0001) %MON dynstat_salt_sd              =   2.7012649849742E-01
(PID.TID 0000.0001) %MON dynstat_salt_del2            =   8.9949946850251E-07
(PID.TID 0000.0001) %MON advcfl_uvel_max              =   2.1935203188314E-03
(PID.TID 0000.0001) %MON advcfl_vvel_max              =   1.6317838048033E-03
(PID.TID 0000.0001) %MON advcfl_wvel_max              =   4.9653376968433E-03
(PID.TID 0000.0001) %MON advcfl_W_hf_max              =   4.9653376968433E-03
(PID.TID 0000.0001) %MON pe_b_mean                    =  -6.8226415229102E-01
(PID.TID 0000.0001) %MON ke_max                       =   1.7218891758482E-04
(PID.TID 0000.0001) %MON ke_mean                      =   2.2083790620130E-07
(PID.TID 0000.0001) %MON ke_vol                       =   4.6183009590995E+12
(PID.TID 0000.0001) // =======================================================
(PID.TID 0000.0001) // End MONITOR dynamic field statistics
(PID.TID 0000.0001) // =======================================================
(PID.TID 0000.0001) // =======================================================
(PID.TID 0000.0001) // Begin OBCS MONITOR field statistics
(PID.TID 0000.0001) // =======================================================
(PID.TID 0000.0001) %MON obc_N_vVel_max               =  -1.6332472313557E-07
(PID.TID 0000.0001) %MON obc_N_vVel_min               =  -1.6332472313558E-07
(PID.TID 0000.0001) %MON obc_N_vVel_mean              =  -1.6332472313558E-07
(PID.TID 0000.0001) %MON obc_N_vVel_sd                =  -1.8238464128710E-27
(PID.TID 0000.0001) %MON obc_N_vVel_Int               =  -1.0779431726948E+01
(PID.TID 0000.0001) // =======================================================
(PID.TID 0000.0001) // End OBCS MONITOR field statistics
(PID.TID 0000.0001) // =======================================================
 cg2d: Sum(rhs),rhsMax =   3.00972706019433E+00  4.53045636870188E+02
(PID.TID 0000.0001)      cg2d_init_res =   2.72980473409178E-06
(PID.TID 0000.0001)      cg2d_iters(min,last) =      -1      74
(PID.TID 0000.0001)      cg2d_last_res =   8.38030946552264E-12
(PID.TID 0000.0001) // =======================================================
(PID.TID 0000.0001) // Begin MONITOR dynamic field statistics
(PID.TID 0000.0001) // =======================================================
(PID.TID 0000.0001) %MON time_tsnumber                =                  1021
(PID.TID 0000.0001) %MON time_secondsf                =   1.0210000000000E+05
(PID.TID 0000.0001) %MON dynstat_eta_max              =   5.7982992174772E+00
(PID.TID 0000.0001) %MON dynstat_eta_min              =  -1.4172840578645E+01
(PID.TID 0000.0001) %MON dynstat_eta_mean             =  -2.5250809496133E+00
(PID.TID 0000.0001) %MON dynstat_eta_sd               =   4.9413678220195E+00
(PID.TID 0000.0001) %MON dynstat_eta_del2             =   1.9058472356246E-01
(PID.TID 0000.0001) %MON dynstat_uvel_max             =   4.6918122770689E-03
(PID.TID 0000.0001) %MON dynstat_uvel_min             =  -2.1994089572116E-02
(PID.TID 0000.0001) %MON dynstat_uvel_mean            =  -4.4734417491373E-10
(PID.TID 0000.0001) %MON dynstat_uvel_sd              =   5.9553281420287E-04
(PID.TID 0000.0001) %MON dynstat_uvel_del2            =   9.2275804455543E-07
(PID.TID 0000.0001) %MON dynstat_vvel_max             =   1.6353323753671E-02
(PID.TID 0000.0001) %MON dynstat_vvel_min             =  -5.9487555839697E-03
(PID.TID 0000.0001) %MON dynstat_vvel_mean            =  -1.3432041401584E-07
(PID.TID 0000.0001) %MON dynstat_vvel_sd              =   3.0968074355370E-04
(PID.TID 0000.0001) %MON dynstat_vvel_del2            =   8.1073562777742E-07
(PID.TID 0000.0001) %MON dynstat_wvel_max             =   9.0076174443233E-04
(PID.TID 0000.0001) %MON dynstat_wvel_min             =  -9.9616923337230E-04
(PID.TID 0000.0001) %MON dynstat_wvel_mean            =   3.3564078186010E-10
(PID.TID 0000.0001) %MON dynstat_wvel_sd              =   1.5297797337765E-05
(PID.TID 0000.0001) %MON dynstat_wvel_del2            =   6.4283070061477E-08
(PID.TID 0000.0001) %MON dynstat_theta_max            =   1.2000000000000E+00
(PID.TID 0000.0001) %MON dynstat_theta_min            =  -1.0000000000000E+00
(PID.TID 0000.0001) %MON dynstat_theta_mean           =   5.6521451159833E-01
(PID.TID 0000.0001) %MON dynstat_theta_sd             =   8.4897604389850E-01
(PID.TID 0000.0001) %MON dynstat_theta_del2           =   2.2826796987103E-06
(PID.TID 0000.0001) %MON dynstat_salt_max             =   3.4700000000000E+01
(PID.TID 0000.0001) %MON dynstat_salt_min             =   3.4000000000000E+01
(PID.TID 0000.0001) %MON dynstat_salt_mean            =   3.4497999734806E+01
(PID.TID 0000.0001) %MON dynstat_salt_sd              =   2.7012641253528E-01
(PID.TID 0000.0001) %MON dynstat_salt_del2            =   9.0145339546845E-07
(PID.TID 0000.0001) %MON advcfl_uvel_max              =   2.1994089572116E-03
(PID.TID 0000.0001) %MON advcfl_vvel_max              =   1.6353323753671E-03
(PID.TID 0000.0001) %MON advcfl_wvel_max              =   4.9808461668615E-03
(PID.TID 0000.0001) %MON advcfl_W_hf_max              =   4.9808461668615E-03
(PID.TID 0000.0001) %MON pe_b_mean                    =  -6.8226268538211E-01
(PID.TID 0000.0001) %MON ke_max                       =   1.7322920286836E-04
(PID.TID 0000.0001) %MON ke_mean                      =   2.2194577452859E-07
(PID.TID 0000.0001) %MON ke_vol                       =   4.6183009891158E+12
(PID.TID 0000.0001) // =======================================================
(PID.TID 0000.0001) // End MONITOR dynamic field statistics
(PID.TID 0000.0001) // =======================================================
(PID.TID 0000.0001) // =======================================================
(PID.TID 0000.0001) // Begin OBCS MONITOR field statistics
(PID.TID 0000.0001) // =======================================================
(PID.TID 0000.0001) %MON obc_N_vVel_max               =  -1.5901283217457E-07
(PID.TID 0000.0001) %MON obc_N_vVel_min               =  -1.5901283217457E-07
(PID.TID 0000.0001) %MON obc_N_vVel_mean              =  -1.5901283217457E-07
(PID.TID 0000.0001) %MON obc_N_vVel_sd                =  -6.0900061883062E-28
(PID.TID 0000.0001) %MON obc_N_vVel_Int               =  -1.0494846923522E+01
(PID.TID 0000.0001) // =======================================================
(PID.TID 0000.0001) // End OBCS MONITOR field statistics
(PID.TID 0000.0001) // =======================================================
 cg2d: Sum(rhs),rhsMax =   3.00972106784513E+00  4.53045630883090E+02
(PID.TID 0000.0001)      cg2d_init_res =   2.73313287344150E-06
(PID.TID 0000.0001)      cg2d_iters(min,last) =      -1      74
(PID.TID 0000.0001)      cg2d_last_res =   8.40105563339968E-12
(PID.TID 0000.0001) // =======================================================
(PID.TID 0000.0001) // Begin MONITOR dynamic field statistics
(PID.TID 0000.0001) // =======================================================
(PID.TID 0000.0001) %MON time_tsnumber                =                  1022
(PID.TID 0000.0001) %MON time_secondsf                =   1.0220000000000E+05
(PID.TID 0000.0001) %MON dynstat_eta_max              =   5.7983021909203E+00
(PID.TID 0000.0001) %MON dynstat_eta_min              =  -1.4172829907404E+01
(PID.TID 0000.0001) %MON dynstat_eta_mean             =  -2.5250758888223E+00
(PID.TID 0000.0001) %MON dynstat_eta_sd               =   4.9413663530171E+00
(PID.TID 0000.0001) %MON dynstat_eta_del2             =   1.9058473740029E-01
(PID.TID 0000.0001) %MON dynstat_uvel_max             =   4.7036843066355E-03
(PID.TID 0000.0001) %MON dynstat_uvel_min             =  -2.2053073831168E-02
(PID.TID 0000.0001) %MON dynstat_uvel_mean            =  -4.9500716880601E-10
(PID.TID 0000.0001) %MON dynstat_uvel_sd              =   5.9709696260221E-04
(PID.TID 0000.0001) %MON dynstat_uvel_del2            =   9.2500989032266E-07
(PID.TID 0000.0001) %MON dynstat_vvel_max             =   1.6388846335289E-02
(PID.TID 0000.0001) %MON dynstat_vvel_min             =  -5.9622246605171E-03
(PID.TID 0000.0001) %MON dynstat_vvel_mean            =  -1.2754220628254E-07
(PID.TID 0000.0001) %MON dynstat_vvel_sd              =   3.1031995860771E-04
(PID.TID 0000.0001) %MON dynstat_vvel_del2            =   8.1246738686830E-07
(PID.TID 0000.0001) %MON dynstat_wvel_max             =   9.0304157480812E-04
(PID.TID 0000.0001) %MON dynstat_wvel_min             =  -9.9927895543883E-04
(PID.TID 0000.0001) %MON dynstat_wvel_mean            =   3.4410019805108E-10
(PID.TID 0000.0001) %MON dynstat_wvel_sd              =   1.5308534261322E-05
(PID.TID 0000.0001) %MON dynstat_wvel_del2            =   6.4392290295391E-08
(PID.TID 0000.0001) %MON dynstat_theta_max            =   1.2000000000000E+00
(PID.TID 0000.0001) %MON dynstat_theta_min            =  -1.0000000000000E+00
(PID.TID 0000.0001) %MON dynstat_theta_mean           =   5.6521396703981E-01
(PID.TID 0000.0001) %MON dynstat_theta_sd             =   8.4897581376878E-01
(PID.TID 0000.0001) %MON dynstat_theta_del2           =   2.2876009963553E-06
(PID.TID 0000.0001) %MON dynstat_salt_max             =   3.4700000000000E+01
(PID.TID 0000.0001) %MON dynstat_salt_min             =   3.4000000000000E+01
(PID.TID 0000.0001) %MON dynstat_salt_mean            =   3.4497999517572E+01
(PID.TID 0000.0001) %MON dynstat_salt_sd              =   2.7012632637610E-01
(PID.TID 0000.0001) %MON dynstat_salt_del2            =   9.0340689197411E-07
(PID.TID 0000.0001) %MON advcfl_uvel_max              =   2.2053073831168E-03
(PID.TID 0000.0001) %MON advcfl_vvel_max              =   1.6388846335289E-03
(PID.TID 0000.0001) %MON advcfl_wvel_max              =   4.9963947771941E-03
(PID.TID 0000.0001) %MON advcfl_W_hf_max              =   4.9963947771941E-03
(PID.TID 0000.0001) %MON pe_b_mean                    =  -6.8226121715996E-01
(PID.TID 0000.0001) %MON ke_max                       =   1.7427490948178E-04
(PID.TID 0000.0001) %MON ke_mean                      =   2.2305911587546E-07
(PID.TID 0000.0001) %MON ke_vol                       =   4.6183010191593E+12
(PID.TID 0000.0001) // =======================================================
(PID.TID 0000.0001) // End MONITOR dynamic field statistics
(PID.TID 0000.0001) // =======================================================
(PID.TID 0000.0001) // =======================================================
(PID.TID 0000.0001) // Begin OBCS MONITOR field statistics
(PID.TID 0000.0001) // =======================================================
(PID.TID 0000.0001) %MON obc_N_vVel_max               =  -1.5323457616849E-07
(PID.TID 0000.0001) %MON obc_N_vVel_min               =  -1.5323457616849E-07
(PID.TID 0000.0001) %MON obc_N_vVel_mean              =  -1.5323457616849E-07
(PID.TID 0000.0001) %MON obc_N_vVel_sd                =   2.7576473897746E-14
(PID.TID 0000.0001) %MON obc_N_vVel_Int               =  -1.0113482027120E+01
(PID.TID 0000.0001) // =======================================================
(PID.TID 0000.0001) // End OBCS MONITOR field statistics
(PID.TID 0000.0001) // =======================================================
 cg2d: Sum(rhs),rhsMax =   3.00971507041365E+00  4.53045625410812E+02
(PID.TID 0000.0001)      cg2d_init_res =   2.73650811729414E-06
(PID.TID 0000.0001)      cg2d_iters(min,last) =      -1      74
(PID.TID 0000.0001)      cg2d_last_res =   8.42147451858045E-12
(PID.TID 0000.0001) // =======================================================
(PID.TID 0000.0001) // Begin MONITOR dynamic field statistics
(PID.TID 0000.0001) // =======================================================
(PID.TID 0000.0001) %MON time_tsnumber                =                  1023
(PID.TID 0000.0001) %MON time_secondsf                =   1.0230000000000E+05
(PID.TID 0000.0001) %MON dynstat_eta_max              =   5.7983051509215E+00
(PID.TID 0000.0001) %MON dynstat_eta_min              =  -1.4172819228611E+01
(PID.TID 0000.0001) %MON dynstat_eta_mean             =  -2.5250708266368E+00
(PID.TID 0000.0001) %MON dynstat_eta_sd               =   4.9413648856809E+00
(PID.TID 0000.0001) %MON dynstat_eta_del2             =   1.9058475129542E-01
(PID.TID 0000.0001) %MON dynstat_uvel_max             =   4.7155842272923E-03
(PID.TID 0000.0001) %MON dynstat_uvel_min             =  -2.2112155823902E-02
(PID.TID 0000.0001) %MON dynstat_uvel_mean            =  -5.4058580557840E-10
(PID.TID 0000.0001) %MON dynstat_uvel_sd              =   5.9866433423840E-04
(PID.TID 0000.0001) %MON dynstat_uvel_del2            =   9.2726753874482E-07
(PID.TID 0000.0001) %MON dynstat_vvel_max             =   1.6424405693943E-02
(PID.TID 0000.0001) %MON dynstat_vvel_min             =  -5.9757170854304E-03
(PID.TID 0000.0001) %MON dynstat_vvel_mean            =  -1.1935716528879E-07
(PID.TID 0000.0001) %MON dynstat_vvel_sd              =   3.1096193007587E-04
(PID.TID 0000.0001) %MON dynstat_vvel_del2            =   8.1421767452978E-07
(PID.TID 0000.0001) %MON dynstat_wvel_max             =   9.0532518301574E-04
(PID.TID 0000.0001) %MON dynstat_wvel_min             =  -1.0023967092340E-03
(PID.TID 0000.0001) %MON dynstat_wvel_mean            =   3.5167389712681E-10
(PID.TID 0000.0001) %MON dynstat_wvel_sd              =   1.5323904602294E-05
(PID.TID 0000.0001) %MON dynstat_wvel_del2            =   6.4527638653517E-08
(PID.TID 0000.0001) %MON dynstat_theta_max            =   1.2000000000000E+00
(PID.TID 0000.0001) %MON dynstat_theta_min            =  -1.0000000000000E+00
(PID.TID 0000.0001) %MON dynstat_theta_mean           =   5.6521342144385E-01
(PID.TID 0000.0001) %MON dynstat_theta_sd             =   8.4897558312875E-01
(PID.TID 0000.0001) %MON dynstat_theta_del2           =   2.2925160869547E-06
(PID.TID 0000.0001) %MON dynstat_salt_max             =   3.4700000000000E+01
(PID.TID 0000.0001) %MON dynstat_salt_min             =   3.4000000000000E+01
(PID.TID 0000.0001) %MON dynstat_salt_mean            =   3.4497999299924E+01
(PID.TID 0000.0001) %MON dynstat_salt_sd              =   2.7012624001939E-01
(PID.TID 0000.0001) %MON dynstat_salt_del2            =   9.0535998416984E-07
(PID.TID 0000.0001) %MON advcfl_uvel_max              =   2.2112155823902E-03
(PID.TID 0000.0001) %MON advcfl_vvel_max              =   1.6424405693943E-03
(PID.TID 0000.0001) %MON advcfl_wvel_max              =   5.0119835461698E-03
(PID.TID 0000.0001) %MON advcfl_W_hf_max              =   5.0119835461698E-03
(PID.TID 0000.0001) %MON pe_b_mean                    =  -6.8225974791999E-01
(PID.TID 0000.0001) %MON ke_max                       =   1.7532606031208E-04
(PID.TID 0000.0001) %MON ke_mean                      =   2.2417801672054E-07
(PID.TID 0000.0001) %MON ke_vol                       =   4.6183010492204E+12
(PID.TID 0000.0001) // =======================================================
(PID.TID 0000.0001) // End MONITOR dynamic field statistics
(PID.TID 0000.0001) // =======================================================
(PID.TID 0000.0001) // =======================================================
(PID.TID 0000.0001) // Begin OBCS MONITOR field statistics
(PID.TID 0000.0001) // =======================================================
(PID.TID 0000.0001) %MON obc_N_vVel_max               =  -1.4603687147478E-07
(PID.TID 0000.0001) %MON obc_N_vVel_min               =  -1.4603687147478E-07
(PID.TID 0000.0001) %MON obc_N_vVel_mean              =  -1.4603687147478E-07
(PID.TID 0000.0001) %MON obc_N_vVel_sd                =  -1.3221308771504E-27
(PID.TID 0000.0001) %MON obc_N_vVel_Int               =  -9.6384335173356E+00
(PID.TID 0000.0001) // =======================================================
(PID.TID 0000.0001) // End OBCS MONITOR field statistics
(PID.TID 0000.0001) // =======================================================
 cg2d: Sum(rhs),rhsMax =   3.00970906990108E+00  4.53045620420729E+02
(PID.TID 0000.0001)      cg2d_init_res =   2.73992936840841E-06
(PID.TID 0000.0001)      cg2d_iters(min,last) =      -1      74
(PID.TID 0000.0001)      cg2d_last_res =   8.44151428863598E-12
(PID.TID 0000.0001) // =======================================================
(PID.TID 0000.0001) // Begin MONITOR dynamic field statistics
(PID.TID 0000.0001) // =======================================================
(PID.TID 0000.0001) %MON time_tsnumber                =                  1024
(PID.TID 0000.0001) %MON time_secondsf                =   1.0240000000000E+05
(PID.TID 0000.0001) %MON dynstat_eta_max              =   5.7983080951365E+00
(PID.TID 0000.0001) %MON dynstat_eta_min              =  -1.4172808544871E+01
(PID.TID 0000.0001) %MON dynstat_eta_mean             =  -2.5250657645541E+00
(PID.TID 0000.0001) %MON dynstat_eta_sd               =   4.9413634204099E+00
(PID.TID 0000.0001) %MON dynstat_eta_del2             =   1.9058476524768E-01
(PID.TID 0000.0001) %MON dynstat_uvel_max             =   4.7275120994330E-03
(PID.TID 0000.0001) %MON dynstat_uvel_min             =  -2.2171335407221E-02
(PID.TID 0000.0001) %MON dynstat_uvel_mean            =  -5.8347193476833E-10
(PID.TID 0000.0001) %MON dynstat_uvel_sd              =   6.0023493198674E-04
(PID.TID 0000.0001) %MON dynstat_uvel_del2            =   9.2953100145548E-07
(PID.TID 0000.0001) %MON dynstat_vvel_max             =   1.6460001728698E-02
(PID.TID 0000.0001) %MON dynstat_vvel_min             =  -5.9892328776217E-03
(PID.TID 0000.0001) %MON dynstat_vvel_mean            =  -1.0983707084756E-07
(PID.TID 0000.0001) %MON dynstat_vvel_sd              =   3.1160680380750E-04
(PID.TID 0000.0001) %MON dynstat_vvel_del2            =   8.1598552213494E-07
(PID.TID 0000.0001) %MON dynstat_wvel_max             =   9.0761256868691E-04
(PID.TID 0000.0001) %MON dynstat_wvel_min             =  -1.0055224984207E-03
(PID.TID 0000.0001) %MON dynstat_wvel_mean            =   3.5828067038711E-10
(PID.TID 0000.0001) %MON dynstat_wvel_sd              =   1.5344218951491E-05
(PID.TID 0000.0001) %MON dynstat_wvel_del2            =   6.4686194496454E-08
(PID.TID 0000.0001) %MON dynstat_theta_max            =   1.2000000000000E+00
(PID.TID 0000.0001) %MON dynstat_theta_min            =  -1.0000000000000E+00
(PID.TID 0000.0001) %MON dynstat_theta_mean           =   5.6521287480864E-01
(PID.TID 0000.0001) %MON dynstat_theta_sd             =   8.4897535197842E-01
(PID.TID 0000.0001) %MON dynstat_theta_del2           =   2.2974255887293E-06
(PID.TID 0000.0001) %MON dynstat_salt_max             =   3.4700000000000E+01
(PID.TID 0000.0001) %MON dynstat_salt_min             =   3.4000000000000E+01
(PID.TID 0000.0001) %MON dynstat_salt_mean            =   3.4497999081859E+01
(PID.TID 0000.0001) %MON dynstat_salt_sd              =   2.7012615346495E-01
(PID.TID 0000.0001) %MON dynstat_salt_del2            =   9.0731281563979E-07
(PID.TID 0000.0001) %MON advcfl_uvel_max              =   2.2171335407221E-03
(PID.TID 0000.0001) %MON advcfl_vvel_max              =   1.6460001728698E-03
(PID.TID 0000.0001) %MON advcfl_wvel_max              =   5.0276124921035E-03
(PID.TID 0000.0001) %MON advcfl_W_hf_max              =   5.0276124921035E-03
(PID.TID 0000.0001) %MON pe_b_mean                    =  -6.8225827794107E-01
(PID.TID 0000.0001) %MON ke_max                       =   1.7638267831689E-04
(PID.TID 0000.0001) %MON ke_mean                      =   2.2530254442502E-07
(PID.TID 0000.0001) %MON ke_vol                       =   4.6183010792898E+12
(PID.TID 0000.0001) // =======================================================
(PID.TID 0000.0001) // End MONITOR dynamic field statistics
(PID.TID 0000.0001) // =======================================================
(PID.TID 0000.0001) // =======================================================
(PID.TID 0000.0001) // Begin OBCS MONITOR field statistics
(PID.TID 0000.0001) // =======================================================
(PID.TID 0000.0001) %MON obc_N_vVel_max               =  -1.3748173391416E-07
(PID.TID 0000.0001) %MON obc_N_vVel_min               =  -1.3748173391416E-07
(PID.TID 0000.0001) %MON obc_N_vVel_mean              =  -1.3748173391416E-07
(PID.TID 0000.0001) %MON obc_N_vVel_sd                =  -5.5220263365471E-28
(PID.TID 0000.0001) %MON obc_N_vVel_Int               =  -9.0737944383349E+00
(PID.TID 0000.0001) // =======================================================
(PID.TID 0000.0001) // End OBCS MONITOR field statistics
(PID.TID 0000.0001) // =======================================================
 cg2d: Sum(rhs),rhsMax =   3.00970306824195E+00  4.53045615875015E+02
(PID.TID 0000.0001)      cg2d_init_res =   2.74339751913202E-06
(PID.TID 0000.0001)      cg2d_iters(min,last) =      -1      74
(PID.TID 0000.0001)      cg2d_last_res =   8.46112262563392E-12
(PID.TID 0000.0001) // =======================================================
(PID.TID 0000.0001) // Begin MONITOR dynamic field statistics
(PID.TID 0000.0001) // =======================================================
(PID.TID 0000.0001) %MON time_tsnumber                =                  1025
(PID.TID 0000.0001) %MON time_secondsf                =   1.0250000000000E+05
(PID.TID 0000.0001) %MON dynstat_eta_max              =   5.7983110213917E+00
(PID.TID 0000.0001) %MON dynstat_eta_min              =  -1.4172797858604E+01
(PID.TID 0000.0001) %MON dynstat_eta_mean             =  -2.5250607039863E+00
(PID.TID 0000.0001) %MON dynstat_eta_sd               =   4.9413619575601E+00
(PID.TID 0000.0001) %MON dynstat_eta_del2             =   1.9058477925670E-01
(PID.TID 0000.0001) %MON dynstat_uvel_max             =   4.7394679830823E-03
(PID.TID 0000.0001) %MON dynstat_uvel_min             =  -2.2230612436767E-02
(PID.TID 0000.0001) %MON dynstat_uvel_mean            =  -6.2307859814895E-10
(PID.TID 0000.0001) %MON dynstat_uvel_sd              =   6.0180875895372E-04
(PID.TID 0000.0001) %MON dynstat_uvel_del2            =   9.3180029011703E-07
(PID.TID 0000.0001) %MON dynstat_vvel_max             =   1.6495634336454E-02
(PID.TID 0000.0001) %MON dynstat_vvel_min             =  -6.0027720569176E-03
(PID.TID 0000.0001) %MON dynstat_vvel_mean            =  -9.9068253483230E-08
(PID.TID 0000.0001) %MON dynstat_vvel_sd              =   3.1225465901846E-04
(PID.TID 0000.0001) %MON dynstat_vvel_del2            =   8.1776961336812E-07
(PID.TID 0000.0001) %MON dynstat_wvel_max             =   9.0990373143201E-04
(PID.TID 0000.0001) %MON dynstat_wvel_min             =  -1.0086563265911E-03
(PID.TID 0000.0001) %MON dynstat_wvel_mean            =   3.6384797077714E-10
(PID.TID 0000.0001) %MON dynstat_wvel_sd              =   1.5369638283872E-05
(PID.TID 0000.0001) %MON dynstat_wvel_del2            =   6.4864730586323E-08
(PID.TID 0000.0001) %MON dynstat_theta_max            =   1.2000000000000E+00
(PID.TID 0000.0001) %MON dynstat_theta_min            =  -1.0000000000000E+00
(PID.TID 0000.0001) %MON dynstat_theta_mean           =   5.6521232713250E-01
(PID.TID 0000.0001) %MON dynstat_theta_sd             =   8.4897512031765E-01
(PID.TID 0000.0001) %MON dynstat_theta_del2           =   2.3023305103093E-06
(PID.TID 0000.0001) %MON dynstat_salt_max             =   3.4700000000000E+01
(PID.TID 0000.0001) %MON dynstat_salt_min             =   3.4000000000000E+01
(PID.TID 0000.0001) %MON dynstat_salt_mean            =   3.4497998863377E+01
(PID.TID 0000.0001) %MON dynstat_salt_sd              =   2.7012606671270E-01
(PID.TID 0000.0001) %MON dynstat_salt_del2            =   9.0926559784223E-07
(PID.TID 0000.0001) %MON advcfl_uvel_max              =   2.2230612436767E-03
(PID.TID 0000.0001) %MON advcfl_vvel_max              =   1.6495634336454E-03
(PID.TID 0000.0001) %MON advcfl_wvel_max              =   5.0432816329555E-03
(PID.TID 0000.0001) %MON advcfl_W_hf_max              =   5.0432816329555E-03
(PID.TID 0000.0001) %MON pe_b_mean                    =  -6.8225680748257E-01
(PID.TID 0000.0001) %MON ke_max                       =   1.7744478652364E-04
(PID.TID 0000.0001) %MON ke_mean                      =   2.2643274613389E-07
(PID.TID 0000.0001) %MON ke_vol                       =   4.6183011093585E+12
(PID.TID 0000.0001) // =======================================================
(PID.TID 0000.0001) // End MONITOR dynamic field statistics
(PID.TID 0000.0001) // =======================================================
(PID.TID 0000.0001) // =======================================================
(PID.TID 0000.0001) // Begin OBCS MONITOR field statistics
(PID.TID 0000.0001) // =======================================================
(PID.TID 0000.0001) %MON obc_N_vVel_max               =  -1.2764579160389E-07
(PID.TID 0000.0001) %MON obc_N_vVel_min               =  -1.2764579160389E-07
(PID.TID 0000.0001) %MON obc_N_vVel_mean              =  -1.2764579160389E-07
(PID.TID 0000.0001) %MON obc_N_vVel_sd                =  -9.8765385333671E-28
(PID.TID 0000.0001) %MON obc_N_vVel_Int               =  -8.4246222458567E+00
(PID.TID 0000.0001) // =======================================================
(PID.TID 0000.0001) // End OBCS MONITOR field statistics
(PID.TID 0000.0001) // =======================================================
 cg2d: Sum(rhs),rhsMax =   3.00969706728549E+00  4.53045611730646E+02
(PID.TID 0000.0001)      cg2d_init_res =   2.74690483945641E-06
(PID.TID 0000.0001)      cg2d_iters(min,last) =      -1      74
(PID.TID 0000.0001)      cg2d_last_res =   8.48005627340439E-12
(PID.TID 0000.0001) // =======================================================
(PID.TID 0000.0001) // Begin MONITOR dynamic field statistics
(PID.TID 0000.0001) // =======================================================
(PID.TID 0000.0001) %MON time_tsnumber                =                  1026
(PID.TID 0000.0001) %MON time_secondsf                =   1.0260000000000E+05
(PID.TID 0000.0001) %MON dynstat_eta_max              =   5.7983139276021E+00
(PID.TID 0000.0001) %MON dynstat_eta_min              =  -1.4172787172049E+01
(PID.TID 0000.0001) %MON dynstat_eta_mean             =  -2.5250556462450E+00
(PID.TID 0000.0001) %MON dynstat_eta_sd               =   4.9413604974466E+00
(PID.TID 0000.0001) %MON dynstat_eta_del2             =   1.9058479332228E-01
(PID.TID 0000.0001) %MON dynstat_uvel_max             =   4.7514519380014E-03
(PID.TID 0000.0001) %MON dynstat_uvel_min             =  -2.2289986767421E-02
(PID.TID 0000.0001) %MON dynstat_uvel_mean            =  -6.5882964177464E-10
(PID.TID 0000.0001) %MON dynstat_uvel_sd              =   6.0338581834327E-04
(PID.TID 0000.0001) %MON dynstat_uvel_del2            =   9.3407541681119E-07
(PID.TID 0000.0001) %MON dynstat_vvel_max             =   1.6531303412150E-02
(PID.TID 0000.0001) %MON dynstat_vvel_min             =  -6.0163346439861E-03
(PID.TID 0000.0001) %MON dynstat_vvel_mean            =  -8.7150883015356E-08
(PID.TID 0000.0001) %MON dynstat_vvel_sd              =   3.1290550742393E-04
(PID.TID 0000.0001) %MON dynstat_vvel_del2            =   8.1956836931449E-07
(PID.TID 0000.0001) %MON dynstat_wvel_max             =   9.1219867083674E-04
(PID.TID 0000.0001) %MON dynstat_wvel_min             =  -1.0117981970827E-03
(PID.TID 0000.0001) %MON dynstat_wvel_mean            =   3.6831221135683E-10
(PID.TID 0000.0001) %MON dynstat_wvel_sd              =   1.5400183086946E-05
(PID.TID 0000.0001) %MON dynstat_wvel_del2            =   6.5060027623964E-08
(PID.TID 0000.0001) %MON dynstat_theta_max            =   1.2000000000000E+00
(PID.TID 0000.0001) %MON dynstat_theta_min            =  -1.0000000000000E+00
(PID.TID 0000.0001) %MON dynstat_theta_mean           =   5.6521177841386E-01
(PID.TID 0000.0001) %MON dynstat_theta_sd             =   8.4897488814491E-01
(PID.TID 0000.0001) %MON dynstat_theta_del2           =   2.3072321842462E-06
(PID.TID 0000.0001) %MON dynstat_salt_max             =   3.4700000000000E+01
(PID.TID 0000.0001) %MON dynstat_salt_min             =   3.4000000000000E+01
(PID.TID 0000.0001) %MON dynstat_salt_mean            =   3.4497998644477E+01
(PID.TID 0000.0001) %MON dynstat_salt_sd              =   2.7012597976198E-01
(PID.TID 0000.0001) %MON dynstat_salt_del2            =   9.1121868641026E-07
(PID.TID 0000.0001) %MON advcfl_uvel_max              =   2.2289986767421E-03
(PID.TID 0000.0001) %MON advcfl_vvel_max              =   1.6531303412150E-03
(PID.TID 0000.0001) %MON advcfl_wvel_max              =   5.0589909854133E-03
(PID.TID 0000.0001) %MON advcfl_W_hf_max              =   5.0589909854133E-03
(PID.TID 0000.0001) %MON pe_b_mean                    =  -6.8225533678129E-01
(PID.TID 0000.0001) %MON ke_max                       =   1.7851240804530E-04
(PID.TID 0000.0001) %MON ke_mean                      =   2.2756864821291E-07
(PID.TID 0000.0001) %MON ke_vol                       =   4.6183011394183E+12
(PID.TID 0000.0001) // =======================================================
(PID.TID 0000.0001) // End MONITOR dynamic field statistics
(PID.TID 0000.0001) // =======================================================
(PID.TID 0000.0001) // =======================================================
(PID.TID 0000.0001) // Begin OBCS MONITOR field statistics
(PID.TID 0000.0001) // =======================================================
(PID.TID 0000.0001) %MON obc_N_vVel_max               =  -1.1661968597625E-07
(PID.TID 0000.0001) %MON obc_N_vVel_min               =  -1.1661968597626E-07
(PID.TID 0000.0001) %MON obc_N_vVel_mean              =  -1.1661968597625E-07
(PID.TID 0000.0001) %MON obc_N_vVel_sd                =   2.9564469942566E-14
(PID.TID 0000.0001) %MON obc_N_vVel_Int               =  -7.6968992744328E+00
(PID.TID 0000.0001) // =======================================================
(PID.TID 0000.0001) // End OBCS MONITOR field statistics
(PID.TID 0000.0001) // =======================================================
 cg2d: Sum(rhs),rhsMax =   3.00969106877404E+00  4.53045607939913E+02
(PID.TID 0000.0001)      cg2d_init_res =   2.75047894291386E-06
(PID.TID 0000.0001)      cg2d_iters(min,last) =      -1      74
(PID.TID 0000.0001)      cg2d_last_res =   8.49867604815644E-12
(PID.TID 0000.0001) // =======================================================
(PID.TID 0000.0001) // Begin MONITOR dynamic field statistics
(PID.TID 0000.0001) // =======================================================
(PID.TID 0000.0001) %MON time_tsnumber                =                  1027
(PID.TID 0000.0001) %MON time_secondsf                =   1.0270000000000E+05
(PID.TID 0000.0001) %MON dynstat_eta_max              =   5.7983168120212E+00
(PID.TID 0000.0001) %MON dynstat_eta_min              =  -1.4172776487211E+01
(PID.TID 0000.0001) %MON dynstat_eta_mean             =  -2.5250505925260E+00
(PID.TID 0000.0001) %MON dynstat_eta_sd               =   4.9413590403197E+00
(PID.TID 0000.0001) %MON dynstat_eta_del2             =   1.9058480744326E-01
(PID.TID 0000.0001) %MON dynstat_uvel_max             =   4.7634640240268E-03
(PID.TID 0000.0001) %MON dynstat_uvel_min             =  -2.2349458251819E-02
(PID.TID 0000.0001) %MON dynstat_uvel_mean            =  -6.9019657443994E-10
(PID.TID 0000.0001) %MON dynstat_uvel_sd              =   6.0496611373292E-04
(PID.TID 0000.0001) %MON dynstat_uvel_del2            =   9.3635639318799E-07
(PID.TID 0000.0001) %MON dynstat_vvel_max             =   1.6567008868371E-02
(PID.TID 0000.0001) %MON dynstat_vvel_min             =  -6.0299206600760E-03
(PID.TID 0000.0001) %MON dynstat_vvel_mean            =  -7.4198092184202E-08
(PID.TID 0000.0001) %MON dynstat_vvel_sd              =   3.1355929381350E-04
(PID.TID 0000.0001) %MON dynstat_vvel_del2            =   8.2138002476050E-07
(PID.TID 0000.0001) %MON dynstat_wvel_max             =   9.1449739586061E-04
(PID.TID 0000.0001) %MON dynstat_wvel_min             =  -1.0149481130759E-03
(PID.TID 0000.0001) %MON dynstat_wvel_mean            =   3.7162169605788E-10
(PID.TID 0000.0001) %MON dynstat_wvel_sd              =   1.5435741701367E-05
(PID.TID 0000.0001) %MON dynstat_wvel_del2            =   6.5269109658523E-08
(PID.TID 0000.0001) %MON dynstat_theta_max            =   1.2000000000000E+00
(PID.TID 0000.0001) %MON dynstat_theta_min            =  -1.0000000000000E+00
(PID.TID 0000.0001) %MON dynstat_theta_mean           =   5.6521122865125E-01
(PID.TID 0000.0001) %MON dynstat_theta_sd             =   8.4897465545763E-01
(PID.TID 0000.0001) %MON dynstat_theta_del2           =   2.3121322100123E-06
(PID.TID 0000.0001) %MON dynstat_salt_max             =   3.4700000000000E+01
(PID.TID 0000.0001) %MON dynstat_salt_min             =   3.4000000000000E+01
(PID.TID 0000.0001) %MON dynstat_salt_mean            =   3.4497998425159E+01
(PID.TID 0000.0001) %MON dynstat_salt_sd              =   2.7012589261178E-01
(PID.TID 0000.0001) %MON dynstat_salt_del2            =   9.1317247232949E-07
(PID.TID 0000.0001) %MON advcfl_uvel_max              =   2.2349458251819E-03
(PID.TID 0000.0001) %MON advcfl_vvel_max              =   1.6567008868371E-03
(PID.TID 0000.0001) %MON advcfl_wvel_max              =   5.0747405653795E-03
(PID.TID 0000.0001) %MON advcfl_W_hf_max              =   5.0747405653795E-03
(PID.TID 0000.0001) %MON pe_b_mean                    =  -6.8225386604874E-01
(PID.TID 0000.0001) %MON ke_max                       =   1.7958556603452E-04
(PID.TID 0000.0001) %MON ke_mean                      =   2.2871025637352E-07
(PID.TID 0000.0001) %MON ke_vol                       =   4.6183011694613E+12
(PID.TID 0000.0001) // =======================================================
(PID.TID 0000.0001) // End MONITOR dynamic field statistics
(PID.TID 0000.0001) // =======================================================
(PID.TID 0000.0001) // =======================================================
(PID.TID 0000.0001) // Begin OBCS MONITOR field statistics
(PID.TID 0000.0001) // =======================================================
(PID.TID 0000.0001) %MON obc_N_vVel_max               =  -1.0450729912249E-07
(PID.TID 0000.0001) %MON obc_N_vVel_min               =  -1.0450729912249E-07
(PID.TID 0000.0001) %MON obc_N_vVel_mean              =  -1.0450729912249E-07
(PID.TID 0000.0001) %MON obc_N_vVel_sd                =   2.2222216961148E-14
(PID.TID 0000.0001) %MON obc_N_vVel_Int               =  -6.8974817420841E+00
(PID.TID 0000.0001) // =======================================================
(PID.TID 0000.0001) // End OBCS MONITOR field statistics
(PID.TID 0000.0001) // =======================================================
 cg2d: Sum(rhs),rhsMax =   3.00968507432666E+00  4.53045604450475E+02
(PID.TID 0000.0001)      cg2d_init_res =   2.75412767337941E-06
(PID.TID 0000.0001)      cg2d_iters(min,last) =      -1      74
(PID.TID 0000.0001)      cg2d_last_res =   8.51685738873211E-12
(PID.TID 0000.0001) // =======================================================
(PID.TID 0000.0001) // Begin MONITOR dynamic field statistics
(PID.TID 0000.0001) // =======================================================
(PID.TID 0000.0001) %MON time_tsnumber                =                  1028
(PID.TID 0000.0001) %MON time_secondsf                =   1.0280000000000E+05
(PID.TID 0000.0001) %MON dynstat_eta_max              =   5.7983196730590E+00
(PID.TID 0000.0001) %MON dynstat_eta_min              =  -1.4172765805848E+01
(PID.TID 0000.0001) %MON dynstat_eta_mean             =  -2.5250455438961E+00
(PID.TID 0000.0001) %MON dynstat_eta_sd               =   4.9413575863786E+00
(PID.TID 0000.0001) %MON dynstat_eta_del2             =   1.9058482161858E-01
(PID.TID 0000.0001) %MON dynstat_uvel_max             =   4.7755043007651E-03
(PID.TID 0000.0001) %MON dynstat_uvel_min             =  -2.2409026742244E-02
(PID.TID 0000.0001) %MON dynstat_uvel_mean            =  -7.1669732914179E-10
(PID.TID 0000.0001) %MON dynstat_uvel_sd              =   6.0654964898026E-04
(PID.TID 0000.0001) %MON dynstat_uvel_del2            =   9.3864323081991E-07
(PID.TID 0000.0001) %MON dynstat_vvel_max             =   1.6602750593989E-02
(PID.TID 0000.0001) %MON dynstat_vvel_min             =  -6.0435301271893E-03
(PID.TID 0000.0001) %MON dynstat_vvel_mean            =  -6.0334970368183E-08
(PID.TID 0000.0001) %MON dynstat_vvel_sd              =   3.1421589858972E-04
(PID.TID 0000.0001) %MON dynstat_vvel_del2            =   8.2320269448947E-07
(PID.TID 0000.0001) %MON dynstat_wvel_max             =   9.1679990528897E-04
(PID.TID 0000.0001) %MON dynstat_wvel_min             =  -1.0181060774715E-03
(PID.TID 0000.0001) %MON dynstat_wvel_mean            =   3.7373475327023E-10
(PID.TID 0000.0001) %MON dynstat_wvel_sd              =   1.5476076503357E-05
(PID.TID 0000.0001) %MON dynstat_wvel_del2            =   6.5489374643193E-08
(PID.TID 0000.0001) %MON dynstat_theta_max            =   1.2000000000000E+00
(PID.TID 0000.0001) %MON dynstat_theta_min            =  -1.0000000000000E+00
(PID.TID 0000.0001) %MON dynstat_theta_mean           =   5.6521067784333E-01
(PID.TID 0000.0001) %MON dynstat_theta_sd             =   8.4897442225211E-01
(PID.TID 0000.0001) %MON dynstat_theta_del2           =   2.3170323385444E-06
(PID.TID 0000.0001) %MON dynstat_salt_max             =   3.4700000000000E+01
(PID.TID 0000.0001) %MON dynstat_salt_min             =   3.4000000000000E+01
(PID.TID 0000.0001) %MON dynstat_salt_mean            =   3.4497998205423E+01
(PID.TID 0000.0001) %MON dynstat_salt_sd              =   2.7012580526112E-01
(PID.TID 0000.0001) %MON dynstat_salt_del2            =   9.1512742518638E-07
(PID.TID 0000.0001) %MON advcfl_uvel_max              =   2.2409026742244E-03
(PID.TID 0000.0001) %MON advcfl_vvel_max              =   1.6602750593989E-03
(PID.TID 0000.0001) %MON advcfl_wvel_max              =   5.0905303873576E-03
(PID.TID 0000.0001) %MON advcfl_W_hf_max              =   5.0905303873576E-03
(PID.TID 0000.0001) %MON pe_b_mean                    =  -6.8225239546861E-01
(PID.TID 0000.0001) %MON ke_max                       =   1.8066428374447E-04
(PID.TID 0000.0001) %MON ke_mean                      =   2.2985755619607E-07
(PID.TID 0000.0001) %MON ke_vol                       =   4.6183011994804E+12
(PID.TID 0000.0001) // =======================================================
(PID.TID 0000.0001) // End MONITOR dynamic field statistics
(PID.TID 0000.0001) // =======================================================
(PID.TID 0000.0001) // =======================================================
(PID.TID 0000.0001) // Begin OBCS MONITOR field statistics
(PID.TID 0000.0001) // =======================================================
(PID.TID 0000.0001) %MON obc_N_vVel_max               =  -9.1424867863678E-08
(PID.TID 0000.0001) %MON obc_N_vVel_min               =  -9.1424867863681E-08
(PID.TID 0000.0001) %MON obc_N_vVel_mean              =  -9.1424867863681E-08
(PID.TID 0000.0001) %MON obc_N_vVel_sd                =  -8.2041534142985E-28
(PID.TID 0000.0001) %MON obc_N_vVel_Int               =  -6.0340412790029E+00
(PID.TID 0000.0001) // =======================================================
(PID.TID 0000.0001) // End OBCS MONITOR field statistics
(PID.TID 0000.0001) // =======================================================
 cg2d: Sum(rhs),rhsMax =   3.00967908541856E+00  4.53045601205983E+02
(PID.TID 0000.0001)      cg2d_init_res =   2.75787236907132E-06
(PID.TID 0000.0001)      cg2d_iters(min,last) =      -1      74
(PID.TID 0000.0001)      cg2d_last_res =   8.53452807487533E-12
(PID.TID 0000.0001) // =======================================================
(PID.TID 0000.0001) // Begin MONITOR dynamic field statistics
(PID.TID 0000.0001) // =======================================================
(PID.TID 0000.0001) %MON time_tsnumber                =                  1029
(PID.TID 0000.0001) %MON time_secondsf                =   1.0290000000000E+05
(PID.TID 0000.0001) %MON dynstat_eta_max              =   5.7983225093679E+00
(PID.TID 0000.0001) %MON dynstat_eta_min              =  -1.4172755129462E+01
(PID.TID 0000.0001) %MON dynstat_eta_mean             =  -2.5250405012787E+00
(PID.TID 0000.0001) %MON dynstat_eta_sd               =   4.9413561357635E+00
(PID.TID 0000.0001) %MON dynstat_eta_del2             =   1.9058483584686E-01
(PID.TID 0000.0001) %MON dynstat_uvel_max             =   4.7875728290112E-03
(PID.TID 0000.0001) %MON dynstat_uvel_min             =  -2.2468692090359E-02
(PID.TID 0000.0001) %MON dynstat_uvel_mean            =  -7.3789524949312E-10
(PID.TID 0000.0001) %MON dynstat_uvel_sd              =   6.0813642819078E-04
(PID.TID 0000.0001) %MON dynstat_uvel_del2            =   9.4093594108688E-07
(PID.TID 0000.0001) %MON dynstat_vvel_max             =   1.6638528479032E-02
(PID.TID 0000.0001) %MON dynstat_vvel_min             =  -6.0571630685846E-03
(PID.TID 0000.0001) %MON dynstat_vvel_mean            =  -4.5697415435310E-08
(PID.TID 0000.0001) %MON dynstat_vvel_sd              =   3.1487514165098E-04
(PID.TID 0000.0001) %MON dynstat_vvel_del2            =   8.2503442462260E-07
(PID.TID 0000.0001) %MON dynstat_wvel_max             =   9.1910619858116E-04
(PID.TID 0000.0001) %MON dynstat_wvel_min             =  -1.0212720926627E-03
(PID.TID 0000.0001) %MON dynstat_wvel_mean            =   3.7462176865603E-10
(PID.TID 0000.0001) %MON dynstat_wvel_sd              =   1.5520827664732E-05
(PID.TID 0000.0001) %MON dynstat_wvel_del2            =   6.5718618784134E-08
(PID.TID 0000.0001) %MON dynstat_theta_max            =   1.2000000000000E+00
(PID.TID 0000.0001) %MON dynstat_theta_min            =  -1.0000000000000E+00
(PID.TID 0000.0001) %MON dynstat_theta_mean           =   5.6521012598877E-01
(PID.TID 0000.0001) %MON dynstat_theta_sd             =   8.4897418852444E-01
(PID.TID 0000.0001) %MON dynstat_theta_del2           =   2.3219345802884E-06
(PID.TID 0000.0001) %MON dynstat_salt_max             =   3.4700000000000E+01
(PID.TID 0000.0001) %MON dynstat_salt_min             =   3.4000000000000E+01
(PID.TID 0000.0001) %MON dynstat_salt_mean            =   3.4497997985267E+01
(PID.TID 0000.0001) %MON dynstat_salt_sd              =   2.7012571770838E-01
(PID.TID 0000.0001) %MON dynstat_salt_del2            =   9.1708404013930E-07
(PID.TID 0000.0001) %MON advcfl_uvel_max              =   2.2468692090359E-03
(PID.TID 0000.0001) %MON advcfl_vvel_max              =   1.6638528479032E-03
(PID.TID 0000.0001) %MON advcfl_wvel_max              =   5.1063604633136E-03
(PID.TID 0000.0001) %MON advcfl_W_hf_max              =   5.1063604633136E-03
(PID.TID 0000.0001) %MON pe_b_mean                    =  -6.8225092519421E-01
(PID.TID 0000.0001) %MON ke_max                       =   1.8174858451294E-04
(PID.TID 0000.0001) %MON ke_mean                      =   2.3101051411977E-07
(PID.TID 0000.0001) %MON ke_vol                       =   4.6183012294693E+12
(PID.TID 0000.0001) // =======================================================
(PID.TID 0000.0001) // End MONITOR dynamic field statistics
(PID.TID 0000.0001) // =======================================================
(PID.TID 0000.0001) // =======================================================
(PID.TID 0000.0001) // Begin OBCS MONITOR field statistics
(PID.TID 0000.0001) // =======================================================
(PID.TID 0000.0001) %MON obc_N_vVel_max               =  -7.7499936456524E-08
(PID.TID 0000.0001) %MON obc_N_vVel_min               =  -7.7499936456525E-08
(PID.TID 0000.0001) %MON obc_N_vVel_mean              =  -7.7499936456524E-08
(PID.TID 0000.0001) %MON obc_N_vVel_sd                =   2.1149092965428E-14
(PID.TID 0000.0001) %MON obc_N_vVel_Int               =  -5.1149958061306E+00
(PID.TID 0000.0001) // =======================================================
(PID.TID 0000.0001) // End OBCS MONITOR field statistics
(PID.TID 0000.0001) // =======================================================
 cg2d: Sum(rhs),rhsMax =   3.00967310336846E+00  4.53045598146649E+02
(PID.TID 0000.0001)      cg2d_init_res =   2.76173765742172E-06
(PID.TID 0000.0001)      cg2d_iters(min,last) =      -1      74
(PID.TID 0000.0001)      cg2d_last_res =   8.55175404570808E-12
(PID.TID 0000.0001) // =======================================================
(PID.TID 0000.0001) // Begin MONITOR dynamic field statistics
(PID.TID 0000.0001) // =======================================================
(PID.TID 0000.0001) %MON time_tsnumber                =                  1030
(PID.TID 0000.0001) %MON time_secondsf                =   1.0300000000000E+05
(PID.TID 0000.0001) %MON dynstat_eta_max              =   5.7983253198443E+00
(PID.TID 0000.0001) %MON dynstat_eta_min              =  -1.4172744459261E+01
(PID.TID 0000.0001) %MON dynstat_eta_mean             =  -2.5250354654471E+00
(PID.TID 0000.0001) %MON dynstat_eta_sd               =   4.9413546885570E+00
(PID.TID 0000.0001) %MON dynstat_eta_del2             =   1.9058485012661E-01
(PID.TID 0000.0001) %MON dynstat_uvel_max             =   4.7996696738384E-03
(PID.TID 0000.0001) %MON dynstat_uvel_min             =  -2.2528454146660E-02
(PID.TID 0000.0001) %MON dynstat_uvel_mean            =  -7.5339941486574E-10
(PID.TID 0000.0001) %MON dynstat_uvel_sd              =   6.0972645571000E-04
(PID.TID 0000.0001) %MON dynstat_uvel_del2            =   9.4323453520463E-07
(PID.TID 0000.0001) %MON dynstat_vvel_max             =   1.6674342412482E-02
(PID.TID 0000.0001) %MON dynstat_vvel_min             =  -6.0708195093806E-03
(PID.TID 0000.0001) %MON dynstat_vvel_mean            =  -3.0430815967527E-08
(PID.TID 0000.0001) %MON dynstat_vvel_sd              =   3.1553678801214E-04
(PID.TID 0000.0001) %MON dynstat_vvel_del2            =   8.2687323035104E-07
(PID.TID 0000.0001) %MON dynstat_wvel_max             =   9.2141627506046E-04
(PID.TID 0000.0001) %MON dynstat_wvel_min             =  -1.0244461596651E-03
(PID.TID 0000.0001) %MON dynstat_wvel_mean            =   3.7426561466319E-10
(PID.TID 0000.0001) %MON dynstat_wvel_sd              =   1.5569515204335E-05
(PID.TID 0000.0001) %MON dynstat_wvel_del2            =   6.5954963497950E-08
(PID.TID 0000.0001) %MON dynstat_theta_max            =   1.2000000000000E+00
(PID.TID 0000.0001) %MON dynstat_theta_min            =  -1.0000000000000E+00
(PID.TID 0000.0001) %MON dynstat_theta_mean           =   5.6520957308667E-01
(PID.TID 0000.0001) %MON dynstat_theta_sd             =   8.4897395427252E-01
(PID.TID 0000.0001) %MON dynstat_theta_del2           =   2.3268409911817E-06
(PID.TID 0000.0001) %MON dynstat_salt_max             =   3.4700000000000E+01
(PID.TID 0000.0001) %MON dynstat_salt_min             =   3.4000000000000E+01
(PID.TID 0000.0001) %MON dynstat_salt_mean            =   3.4497997764692E+01
(PID.TID 0000.0001) %MON dynstat_salt_sd              =   2.7012562995313E-01
(PID.TID 0000.0001) %MON dynstat_salt_del2            =   9.1904284429293E-07
(PID.TID 0000.0001) %MON advcfl_uvel_max              =   2.2528454146660E-03
(PID.TID 0000.0001) %MON advcfl_vvel_max              =   1.6674342412482E-03
(PID.TID 0000.0001) %MON advcfl_wvel_max              =   5.1222307983257E-03
(PID.TID 0000.0001) %MON advcfl_W_hf_max              =   5.1222307983257E-03
(PID.TID 0000.0001) %MON pe_b_mean                    =  -6.8224945534744E-01
(PID.TID 0000.0001) %MON ke_max                       =   1.8283849174381E-04
(PID.TID 0000.0001) %MON ke_mean                      =   2.3216907900822E-07
(PID.TID 0000.0001) %MON ke_vol                       =   4.6183012594224E+12
(PID.TID 0000.0001) // =======================================================
(PID.TID 0000.0001) // End MONITOR dynamic field statistics
(PID.TID 0000.0001) // =======================================================
(PID.TID 0000.0001) // =======================================================
(PID.TID 0000.0001) // Begin OBCS MONITOR field statistics
(PID.TID 0000.0001) // =======================================================
(PID.TID 0000.0001) %MON obc_N_vVel_max               =  -6.2870116434299E-08
(PID.TID 0000.0001) %MON obc_N_vVel_min               =  -6.2870116434300E-08
(PID.TID 0000.0001) %MON obc_N_vVel_mean              =  -6.2870116434300E-08
(PID.TID 0000.0001) %MON obc_N_vVel_sd                =   8.7925177686291E-15
(PID.TID 0000.0001) %MON obc_N_vVel_Int               =  -4.1494276846638E+00
(PID.TID 0000.0001) // =======================================================
(PID.TID 0000.0001) // End OBCS MONITOR field statistics
(PID.TID 0000.0001) // =======================================================
 cg2d: Sum(rhs),rhsMax =   3.00966712932209E+00  4.53045595209574E+02
(PID.TID 0000.0001)      cg2d_init_res =   2.76575386826209E-06
(PID.TID 0000.0001)      cg2d_iters(min,last) =      -1      74
(PID.TID 0000.0001)      cg2d_last_res =   8.56859710246132E-12
(PID.TID 0000.0001) // =======================================================
(PID.TID 0000.0001) // Begin MONITOR dynamic field statistics
(PID.TID 0000.0001) // =======================================================
(PID.TID 0000.0001) %MON time_tsnumber                =                  1031
(PID.TID 0000.0001) %MON time_secondsf                =   1.0310000000000E+05
(PID.TID 0000.0001) %MON dynstat_eta_max              =   5.7983281036728E+00
(PID.TID 0000.0001) %MON dynstat_eta_min              =  -1.4172733796149E+01
(PID.TID 0000.0001) %MON dynstat_eta_mean             =  -2.5250304370119E+00
(PID.TID 0000.0001) %MON dynstat_eta_sd               =   4.9413532447801E+00
(PID.TID 0000.0001) %MON dynstat_eta_del2             =   1.9058486445618E-01
(PID.TID 0000.0001) %MON dynstat_uvel_max             =   4.8117949010811E-03
(PID.TID 0000.0001) %MON dynstat_uvel_min             =  -2.2588312760297E-02
(PID.TID 0000.0001) %MON dynstat_uvel_mean            =  -7.6286564686002E-10
(PID.TID 0000.0001) %MON dynstat_uvel_sd              =   6.1131973609176E-04
(PID.TID 0000.0001) %MON dynstat_uvel_del2            =   9.4553902420581E-07
(PID.TID 0000.0001) %MON dynstat_vvel_max             =   1.6710192281518E-02
(PID.TID 0000.0001) %MON dynstat_vvel_min             =  -6.0844994750369E-03
(PID.TID 0000.0001) %MON dynstat_vvel_mean            =  -1.4688623931700E-08
(PID.TID 0000.0001) %MON dynstat_vvel_sd              =   3.1620055482570E-04
(PID.TID 0000.0001) %MON dynstat_vvel_del2            =   8.2871712178815E-07
(PID.TID 0000.0001) %MON dynstat_wvel_max             =   9.2373013407935E-04
(PID.TID 0000.0001) %MON dynstat_wvel_min             =  -1.0276282791039E-03
(PID.TID 0000.0001) %MON dynstat_wvel_mean            =   3.7266160338856E-10
(PID.TID 0000.0001) %MON dynstat_wvel_sd              =   1.5621540688853E-05
(PID.TID 0000.0001) %MON dynstat_wvel_del2            =   6.6196705756381E-08
(PID.TID 0000.0001) %MON dynstat_theta_max            =   1.2000000000000E+00
(PID.TID 0000.0001) %MON dynstat_theta_min            =  -1.0000000000000E+00
(PID.TID 0000.0001) %MON dynstat_theta_mean           =   5.6520901913627E-01
(PID.TID 0000.0001) %MON dynstat_theta_sd             =   8.4897371949522E-01
(PID.TID 0000.0001) %MON dynstat_theta_del2           =   2.3317538528393E-06
(PID.TID 0000.0001) %MON dynstat_salt_max             =   3.4700000000000E+01
(PID.TID 0000.0001) %MON dynstat_salt_min             =   3.4000000000000E+01
(PID.TID 0000.0001) %MON dynstat_salt_mean            =   3.4497997543696E+01
(PID.TID 0000.0001) %MON dynstat_salt_sd              =   2.7012554199488E-01
(PID.TID 0000.0001) %MON dynstat_salt_del2            =   9.2100438802048E-07
(PID.TID 0000.0001) %MON advcfl_uvel_max              =   2.2588312760297E-03
(PID.TID 0000.0001) %MON advcfl_vvel_max              =   1.6710192281518E-03
(PID.TID 0000.0001) %MON advcfl_wvel_max              =   5.1381413955197E-03
(PID.TID 0000.0001) %MON advcfl_W_hf_max              =   5.1381413955197E-03
(PID.TID 0000.0001) %MON pe_b_mean                    =  -6.8224798601662E-01
(PID.TID 0000.0001) %MON ke_max                       =   1.8393402891641E-04
(PID.TID 0000.0001) %MON ke_mean                      =   2.3333318416381E-07
(PID.TID 0000.0001) %MON ke_vol                       =   4.6183012893352E+12
(PID.TID 0000.0001) // =======================================================
(PID.TID 0000.0001) // End MONITOR dynamic field statistics
(PID.TID 0000.0001) // =======================================================
(PID.TID 0000.0001) // =======================================================
(PID.TID 0000.0001) // Begin OBCS MONITOR field statistics
(PID.TID 0000.0001) // =======================================================
(PID.TID 0000.0001) %MON obc_N_vVel_max               =  -4.7681748817152E-08
(PID.TID 0000.0001) %MON obc_N_vVel_min               =  -4.7681748817153E-08
(PID.TID 0000.0001) %MON obc_N_vVel_mean              =  -4.7681748817152E-08
(PID.TID 0000.0001) %MON obc_N_vVel_sd                =  -2.0510383535746E-29
(PID.TID 0000.0001) %MON obc_N_vVel_Int               =  -3.1469954219320E+00
(PID.TID 0000.0001) // =======================================================
(PID.TID 0000.0001) // End OBCS MONITOR field statistics
(PID.TID 0000.0001) // =======================================================
 cg2d: Sum(rhs),rhsMax =   3.00966116423803E+00  4.53045592329246E+02
(PID.TID 0000.0001)      cg2d_init_res =   2.76995063764016E-06
(PID.TID 0000.0001)      cg2d_iters(min,last) =      -1      74
(PID.TID 0000.0001)      cg2d_last_res =   8.58514876412932E-12
(PID.TID 0000.0001) // =======================================================
(PID.TID 0000.0001) // Begin MONITOR dynamic field statistics
(PID.TID 0000.0001) // =======================================================
(PID.TID 0000.0001) %MON time_tsnumber                =                  1032
(PID.TID 0000.0001) %MON time_secondsf                =   1.0320000000000E+05
(PID.TID 0000.0001) %MON dynstat_eta_max              =   5.7983308603118E+00
(PID.TID 0000.0001) %MON dynstat_eta_min              =  -1.4172723140732E+01
(PID.TID 0000.0001) %MON dynstat_eta_mean             =  -2.5250254164121E+00
(PID.TID 0000.0001) %MON dynstat_eta_sd               =   4.9413518043908E+00
(PID.TID 0000.0001) %MON dynstat_eta_del2             =   1.9058487883378E-01
(PID.TID 0000.0001) %MON dynstat_uvel_max             =   4.8239485767265E-03
(PID.TID 0000.0001) %MON dynstat_uvel_min             =  -2.2648267779851E-02
(PID.TID 0000.0001) %MON dynstat_uvel_mean            =  -7.6600996394671E-10
(PID.TID 0000.0001) %MON dynstat_uvel_sd              =   6.1291627408469E-04
(PID.TID 0000.0001) %MON dynstat_uvel_del2            =   9.4784941874971E-07
(PID.TID 0000.0001) %MON dynstat_vvel_max             =   1.6746077972345E-02
(PID.TID 0000.0001) %MON dynstat_vvel_min             =  -6.0982029913808E-03
(PID.TID 0000.0001) %MON dynstat_vvel_mean            =   1.3691832794228E-09
(PID.TID 0000.0001) %MON dynstat_vvel_sd              =   3.1686611993395E-04
(PID.TID 0000.0001) %MON dynstat_vvel_del2            =   8.3056412205374E-07
(PID.TID 0000.0001) %MON dynstat_wvel_max             =   9.2604777492276E-04
(PID.TID 0000.0001) %MON dynstat_wvel_min             =  -1.0308184513226E-03
(PID.TID 0000.0001) %MON dynstat_wvel_mean            =   3.6981830541285E-10
(PID.TID 0000.0001) %MON dynstat_wvel_sd              =   1.5676190617251E-05
(PID.TID 0000.0001) %MON dynstat_wvel_del2            =   6.6442123113936E-08
(PID.TID 0000.0001) %MON dynstat_theta_max            =   1.2000000000000E+00
(PID.TID 0000.0001) %MON dynstat_theta_min            =  -1.0000000000000E+00
(PID.TID 0000.0001) %MON dynstat_theta_mean           =   5.6520846413689E-01
(PID.TID 0000.0001) %MON dynstat_theta_sd             =   8.4897348419352E-01
(PID.TID 0000.0001) %MON dynstat_theta_del2           =   2.3366761054774E-06
(PID.TID 0000.0001) %MON dynstat_salt_max             =   3.4700000000000E+01
(PID.TID 0000.0001) %MON dynstat_salt_min             =   3.4000000000000E+01
(PID.TID 0000.0001) %MON dynstat_salt_mean            =   3.4497997322281E+01
(PID.TID 0000.0001) %MON dynstat_salt_sd              =   2.7012545383406E-01
(PID.TID 0000.0001) %MON dynstat_salt_del2            =   9.2296921455555E-07
(PID.TID 0000.0001) %MON advcfl_uvel_max              =   2.2648267779851E-03
(PID.TID 0000.0001) %MON advcfl_vvel_max              =   1.6746077972345E-03
(PID.TID 0000.0001) %MON advcfl_wvel_max              =   5.1540922566128E-03
(PID.TID 0000.0001) %MON advcfl_W_hf_max              =   5.1540922566128E-03
(PID.TID 0000.0001) %MON pe_b_mean                    =  -6.8224651725501E-01
(PID.TID 0000.0001) %MON ke_max                       =   1.8503521959019E-04
(PID.TID 0000.0001) %MON ke_mean                      =   2.3450274986520E-07
(PID.TID 0000.0001) %MON ke_vol                       =   4.6183013192041E+12
(PID.TID 0000.0001) // =======================================================
(PID.TID 0000.0001) // End MONITOR dynamic field statistics
(PID.TID 0000.0001) // =======================================================
(PID.TID 0000.0001) // =======================================================
(PID.TID 0000.0001) // Begin OBCS MONITOR field statistics
(PID.TID 0000.0001) // =======================================================
(PID.TID 0000.0001) %MON obc_N_vVel_max               =  -3.2088500295133E-08
(PID.TID 0000.0001) %MON obc_N_vVel_min               =  -3.2088500295134E-08
(PID.TID 0000.0001) %MON obc_N_vVel_mean              =  -3.2088500295134E-08
(PID.TID 0000.0001) %MON obc_N_vVel_sd                =  -4.2006843203019E-29
(PID.TID 0000.0001) %MON obc_N_vVel_Int               =  -2.1178410194789E+00
(PID.TID 0000.0001) // =======================================================
(PID.TID 0000.0001) // End OBCS MONITOR field statistics
(PID.TID 0000.0001) // =======================================================
 cg2d: Sum(rhs),rhsMax =   3.00965520887767E+00  4.53045589438088E+02
(PID.TID 0000.0001)      cg2d_init_res =   2.77434957533907E-06
(PID.TID 0000.0001)      cg2d_iters(min,last) =      -1      74
(PID.TID 0000.0001)      cg2d_last_res =   8.60151719769758E-12
(PID.TID 0000.0001) // =======================================================
(PID.TID 0000.0001) // Begin MONITOR dynamic field statistics
(PID.TID 0000.0001) // =======================================================
(PID.TID 0000.0001) %MON time_tsnumber                =                  1033
(PID.TID 0000.0001) %MON time_secondsf                =   1.0330000000000E+05
(PID.TID 0000.0001) %MON dynstat_eta_max              =   5.7983335895063E+00
(PID.TID 0000.0001) %MON dynstat_eta_min              =  -1.4172712493279E+01
(PID.TID 0000.0001) %MON dynstat_eta_mean             =  -2.5250204039100E+00
(PID.TID 0000.0001) %MON dynstat_eta_sd               =   4.9413503672830E+00
(PID.TID 0000.0001) %MON dynstat_eta_del2             =   1.9058489325734E-01
(PID.TID 0000.0001) %MON dynstat_uvel_max             =   4.8361307667966E-03
(PID.TID 0000.0001) %MON dynstat_uvel_min             =  -2.2708319053234E-02
(PID.TID 0000.0001) %MON dynstat_uvel_mean            =  -7.6260976531684E-10
(PID.TID 0000.0001) %MON dynstat_uvel_sd              =   6.1451607460075E-04
(PID.TID 0000.0001) %MON dynstat_uvel_del2            =   9.5016572904203E-07
(PID.TID 0000.0001) %MON dynstat_vvel_max             =   1.6781999370073E-02
(PID.TID 0000.0001) %MON dynstat_vvel_min             =  -6.1119300843417E-03
(PID.TID 0000.0001) %MON dynstat_vvel_mean            =   1.7577744764468E-08
(PID.TID 0000.0001) %MON dynstat_vvel_sd              =   3.1753313194015E-04
(PID.TID 0000.0001) %MON dynstat_vvel_del2            =   8.3241228280754E-07
(PID.TID 0000.0001) %MON dynstat_wvel_max             =   9.2836919684315E-04
(PID.TID 0000.0001) %MON dynstat_wvel_min             =  -1.0340166764301E-03
(PID.TID 0000.0001) %MON dynstat_wvel_mean            =   3.6575733203295E-10
(PID.TID 0000.0001) %MON dynstat_wvel_sd              =   1.5732643706503E-05
(PID.TID 0000.0001) %MON dynstat_wvel_del2            =   6.6689269237718E-08
(PID.TID 0000.0001) %MON dynstat_theta_max            =   1.2000000000000E+00
(PID.TID 0000.0001) %MON dynstat_theta_min            =  -1.0000000000000E+00
(PID.TID 0000.0001) %MON dynstat_theta_mean           =   5.6520790808797E-01
(PID.TID 0000.0001) %MON dynstat_theta_sd             =   8.4897324836924E-01
(PID.TID 0000.0001) %MON dynstat_theta_del2           =   2.3416091030825E-06
(PID.TID 0000.0001) %MON dynstat_salt_max             =   3.4700000000000E+01
(PID.TID 0000.0001) %MON dynstat_salt_min             =   3.4000000000000E+01
(PID.TID 0000.0001) %MON dynstat_salt_mean            =   3.4497997100445E+01
(PID.TID 0000.0001) %MON dynstat_salt_sd              =   2.7012536547106E-01
(PID.TID 0000.0001) %MON dynstat_salt_del2            =   9.2493793166068E-07
(PID.TID 0000.0001) %MON advcfl_uvel_max              =   2.2708319053234E-03
(PID.TID 0000.0001) %MON advcfl_vvel_max              =   1.6781999370073E-03
(PID.TID 0000.0001) %MON advcfl_wvel_max              =   5.1700833821504E-03
(PID.TID 0000.0001) %MON advcfl_W_hf_max              =   5.1700833821504E-03
(PID.TID 0000.0001) %MON pe_b_mean                    =  -6.8224504908011E-01
(PID.TID 0000.0001) %MON ke_max                       =   1.8614208741128E-04
(PID.TID 0000.0001) %MON ke_mean                      =   2.3567768640981E-07
(PID.TID 0000.0001) %MON ke_vol                       =   4.6183013490265E+12
(PID.TID 0000.0001) // =======================================================
(PID.TID 0000.0001) // End MONITOR dynamic field statistics
(PID.TID 0000.0001) // =======================================================
(PID.TID 0000.0001) // =======================================================
(PID.TID 0000.0001) // Begin OBCS MONITOR field statistics
(PID.TID 0000.0001) // =======================================================
(PID.TID 0000.0001) %MON obc_N_vVel_max               =  -1.6249764823713E-08
(PID.TID 0000.0001) %MON obc_N_vVel_min               =  -1.6249764823714E-08
(PID.TID 0000.0001) %MON obc_N_vVel_mean              =  -1.6249764823714E-08
(PID.TID 0000.0001) %MON obc_N_vVel_sd                =   2.2204460492503E-16
(PID.TID 0000.0001) %MON obc_N_vVel_Int               =  -1.0724844783651E+00
(PID.TID 0000.0001) // =======================================================
(PID.TID 0000.0001) // End OBCS MONITOR field statistics
(PID.TID 0000.0001) // =======================================================
 cg2d: Sum(rhs),rhsMax =   3.00964926379411E+00  4.53045586467315E+02
(PID.TID 0000.0001)      cg2d_init_res =   2.77898987375489E-06
(PID.TID 0000.0001)      cg2d_iters(min,last) =      -1      74
(PID.TID 0000.0001)      cg2d_last_res =   8.61775090554455E-12
(PID.TID 0000.0001) // =======================================================
(PID.TID 0000.0001) // Begin MONITOR dynamic field statistics
(PID.TID 0000.0001) // =======================================================
(PID.TID 0000.0001) %MON time_tsnumber                =                  1034
(PID.TID 0000.0001) %MON time_secondsf                =   1.0340000000000E+05
(PID.TID 0000.0001) %MON dynstat_eta_max              =   5.7983362912968E+00
(PID.TID 0000.0001) %MON dynstat_eta_min              =  -1.4172701853740E+01
(PID.TID 0000.0001) %MON dynstat_eta_mean             =  -2.5250153995862E+00
(PID.TID 0000.0001) %MON dynstat_eta_sd               =   4.9413489332916E+00
(PID.TID 0000.0001) %MON dynstat_eta_del2             =   1.9058490772486E-01
(PID.TID 0000.0001) %MON dynstat_uvel_max             =   4.8483415371310E-03
(PID.TID 0000.0001) %MON dynstat_uvel_min             =  -2.2768466427980E-02
(PID.TID 0000.0001) %MON dynstat_uvel_mean            =  -7.5251560859569E-10
(PID.TID 0000.0001) %MON dynstat_uvel_sd              =   6.1611914267321E-04
(PID.TID 0000.0001) %MON dynstat_uvel_del2            =   9.5248796508954E-07
(PID.TID 0000.0001) %MON dynstat_vvel_max             =   1.6817956358231E-02
(PID.TID 0000.0001) %MON dynstat_vvel_min             =  -6.1256807797534E-03
(PID.TID 0000.0001) %MON dynstat_vvel_mean            =   3.3769021147668E-08
(PID.TID 0000.0001) %MON dynstat_vvel_sd              =   3.1820122171518E-04
(PID.TID 0000.0001) %MON dynstat_vvel_del2            =   8.3425970400123E-07
(PID.TID 0000.0001) %MON dynstat_wvel_max             =   9.3069439867045E-04
(PID.TID 0000.0001) %MON dynstat_wvel_min             =  -1.0372229543686E-03
(PID.TID 0000.0001) %MON dynstat_wvel_mean            =   3.6051298557276E-10
(PID.TID 0000.0001) %MON dynstat_wvel_sd              =   1.5789984175806E-05
(PID.TID 0000.0001) %MON dynstat_wvel_del2            =   6.6935797113683E-08
(PID.TID 0000.0001) %MON dynstat_theta_max            =   1.2000000000000E+00
(PID.TID 0000.0001) %MON dynstat_theta_min            =  -1.0000000000000E+00
(PID.TID 0000.0001) %MON dynstat_theta_mean           =   5.6520735098909E-01
(PID.TID 0000.0001) %MON dynstat_theta_sd             =   8.4897301202450E-01
(PID.TID 0000.0001) %MON dynstat_theta_del2           =   2.3465550974036E-06
(PID.TID 0000.0001) %MON dynstat_salt_max             =   3.4700000000000E+01
(PID.TID 0000.0001) %MON dynstat_salt_min             =   3.4000000000000E+01
(PID.TID 0000.0001) %MON dynstat_salt_mean            =   3.4497996878188E+01
(PID.TID 0000.0001) %MON dynstat_salt_sd              =   2.7012527690664E-01
(PID.TID 0000.0001) %MON dynstat_salt_del2            =   9.2691153063924E-07
(PID.TID 0000.0001) %MON advcfl_uvel_max              =   2.2768466427980E-03
(PID.TID 0000.0001) %MON advcfl_vvel_max              =   1.6817956358231E-03
(PID.TID 0000.0001) %MON advcfl_wvel_max              =   5.1861147718430E-03
(PID.TID 0000.0001) %MON advcfl_W_hf_max              =   5.1861147718430E-03
(PID.TID 0000.0001) %MON pe_b_mean                    =  -6.8224358147301E-01
(PID.TID 0000.0001) %MON ke_max                       =   1.8725465610960E-04
(PID.TID 0000.0001) %MON ke_mean                      =   2.3685789764748E-07
(PID.TID 0000.0001) %MON ke_vol                       =   4.6183013788008E+12
(PID.TID 0000.0001) // =======================================================
(PID.TID 0000.0001) // End MONITOR dynamic field statistics
(PID.TID 0000.0001) // =======================================================
(PID.TID 0000.0001) // =======================================================
(PID.TID 0000.0001) // Begin OBCS MONITOR field statistics
(PID.TID 0000.0001) // =======================================================
(PID.TID 0000.0001) %MON obc_N_vVel_max               =  -3.2904559330945E-10
(PID.TID 0000.0001) %MON obc_N_vVel_min               =  -3.2904559330946E-10
(PID.TID 0000.0001) %MON obc_N_vVel_mean              =  -3.2904559330946E-10
(PID.TID 0000.0001) %MON obc_N_vVel_sd                =  -2.6722277978373E-33
(PID.TID 0000.0001) %MON obc_N_vVel_Int               =  -2.1717009158425E-02
(PID.TID 0000.0001) // =======================================================
(PID.TID 0000.0001) // End OBCS MONITOR field statistics
(PID.TID 0000.0001) // =======================================================
 cg2d: Sum(rhs),rhsMax =   3.00964332932629E+00  4.53045583347389E+02
(PID.TID 0000.0001)      cg2d_init_res =   2.78389807284678E-06
(PID.TID 0000.0001)      cg2d_iters(min,last) =      -1      74
(PID.TID 0000.0001)      cg2d_last_res =   8.63391722023298E-12
(PID.TID 0000.0001) // =======================================================
(PID.TID 0000.0001) // Begin MONITOR dynamic field statistics
(PID.TID 0000.0001) // =======================================================
(PID.TID 0000.0001) %MON time_tsnumber                =                  1035
(PID.TID 0000.0001) %MON time_secondsf                =   1.0350000000000E+05
(PID.TID 0000.0001) %MON dynstat_eta_max              =   5.7983389660338E+00
(PID.TID 0000.0001) %MON dynstat_eta_min              =  -1.4172691221734E+01
(PID.TID 0000.0001) %MON dynstat_eta_mean             =  -2.5250104033374E+00
(PID.TID 0000.0001) %MON dynstat_eta_sd               =   4.9413475021903E+00
(PID.TID 0000.0001) %MON dynstat_eta_del2             =   1.9058492223426E-01
(PID.TID 0000.0001) %MON dynstat_uvel_max             =   4.8605809533324E-03
(PID.TID 0000.0001) %MON dynstat_uvel_min             =  -2.2828709750820E-02
(PID.TID 0000.0001) %MON dynstat_uvel_mean            =  -7.3564716092180E-10
(PID.TID 0000.0001) %MON dynstat_uvel_sd              =   6.1772548341274E-04
(PID.TID 0000.0001) %MON dynstat_uvel_del2            =   9.5481613621420E-07
(PID.TID 0000.0001) %MON dynstat_vvel_max             =   1.6853948820903E-02
(PID.TID 0000.0001) %MON dynstat_vvel_min             =  -6.1394551031384E-03
(PID.TID 0000.0001) %MON dynstat_vvel_mean            =   4.9773544205805E-08
(PID.TID 0000.0001) %MON dynstat_vvel_sd              =   3.1887001513287E-04
(PID.TID 0000.0001) %MON dynstat_vvel_del2            =   8.3610456047531E-07
(PID.TID 0000.0001) %MON dynstat_wvel_max             =   9.3302337951149E-04
(PID.TID 0000.0001) %MON dynstat_wvel_min             =  -1.0404372849163E-03
(PID.TID 0000.0001) %MON dynstat_wvel_mean            =   3.5413216548648E-10
(PID.TID 0000.0001) %MON dynstat_wvel_sd              =   1.5847222468475E-05
(PID.TID 0000.0001) %MON dynstat_wvel_del2            =   6.7178840289622E-08
(PID.TID 0000.0001) %MON dynstat_theta_max            =   1.2000000000000E+00
(PID.TID 0000.0001) %MON dynstat_theta_min            =  -1.0000000000000E+00
(PID.TID 0000.0001) %MON dynstat_theta_mean           =   5.6520679283999E-01
(PID.TID 0000.0001) %MON dynstat_theta_sd             =   8.4897277515853E-01
(PID.TID 0000.0001) %MON dynstat_theta_del2           =   2.3515162915331E-06
(PID.TID 0000.0001) %MON dynstat_salt_max             =   3.4700000000000E+01
(PID.TID 0000.0001) %MON dynstat_salt_min             =   3.4000000000000E+01
(PID.TID 0000.0001) %MON dynstat_salt_mean            =   3.4497996655510E+01
(PID.TID 0000.0001) %MON dynstat_salt_sd              =   2.7012518814035E-01
(PID.TID 0000.0001) %MON dynstat_salt_del2            =   9.2889016995865E-07
(PID.TID 0000.0001) %MON advcfl_uvel_max              =   2.2828709750820E-03
(PID.TID 0000.0001) %MON advcfl_vvel_max              =   1.6853948820903E-03
(PID.TID 0000.0001) %MON advcfl_wvel_max              =   5.2021864245817E-03
(PID.TID 0000.0001) %MON advcfl_W_hf_max              =   5.2021864245817E-03
(PID.TID 0000.0001) %MON pe_b_mean                    =  -6.8224211437826E-01
(PID.TID 0000.0001) %MON ke_max                       =   1.8837294950017E-04
(PID.TID 0000.0001) %MON ke_mean                      =   2.3804328495190E-07
(PID.TID 0000.0001) %MON ke_vol                       =   4.6183014085265E+12
(PID.TID 0000.0001) // =======================================================
(PID.TID 0000.0001) // End MONITOR dynamic field statistics
(PID.TID 0000.0001) // =======================================================
(PID.TID 0000.0001) // =======================================================
(PID.TID 0000.0001) // Begin OBCS MONITOR field statistics
(PID.TID 0000.0001) // =======================================================
(PID.TID 0000.0001) %MON obc_N_vVel_max               =   1.5507740062505E-08
(PID.TID 0000.0001) %MON obc_N_vVel_min               =   1.5507740062504E-08
(PID.TID 0000.0001) %MON obc_N_vVel_mean              =   1.5507740062504E-08
(PID.TID 0000.0001) %MON obc_N_vVel_sd                =   3.6821932062951E-15
(PID.TID 0000.0001) %MON obc_N_vVel_Int               =   1.0235108441253E+00
(PID.TID 0000.0001) // =======================================================
(PID.TID 0000.0001) // End OBCS MONITOR field statistics
(PID.TID 0000.0001) // =======================================================
 cg2d: Sum(rhs),rhsMax =   3.00963740559163E+00  4.53045580008778E+02
(PID.TID 0000.0001)      cg2d_init_res =   2.78902564173660E-06
(PID.TID 0000.0001)      cg2d_iters(min,last) =      -1      74
(PID.TID 0000.0001)      cg2d_last_res =   8.65017670033190E-12
(PID.TID 0000.0001) // =======================================================
(PID.TID 0000.0001) // Begin MONITOR dynamic field statistics
(PID.TID 0000.0001) // =======================================================
(PID.TID 0000.0001) %MON time_tsnumber                =                  1036
(PID.TID 0000.0001) %MON time_secondsf                =   1.0360000000000E+05
(PID.TID 0000.0001) %MON dynstat_eta_max              =   5.7983416143490E+00
(PID.TID 0000.0001) %MON dynstat_eta_min              =  -1.4172680596556E+01
(PID.TID 0000.0001) %MON dynstat_eta_mean             =  -2.5250054148748E+00
(PID.TID 0000.0001) %MON dynstat_eta_sd               =   4.9413460736862E+00
(PID.TID 0000.0001) %MON dynstat_eta_del2             =   1.9058493678290E-01
(PID.TID 0000.0001) %MON dynstat_uvel_max             =   4.8728490807415E-03
(PID.TID 0000.0001) %MON dynstat_uvel_min             =  -2.2889048868245E-02
(PID.TID 0000.0001) %MON dynstat_uvel_mean            =  -7.1199116627951E-10
(PID.TID 0000.0001) %MON dynstat_uvel_sd              =   6.1933510200609E-04
(PID.TID 0000.0001) %MON dynstat_uvel_del2            =   9.5715025115767E-07
(PID.TID 0000.0001) %MON dynstat_vvel_max             =   1.6889976641219E-02
(PID.TID 0000.0001) %MON dynstat_vvel_min             =  -6.1532530795407E-03
(PID.TID 0000.0001) %MON dynstat_vvel_mean            =   6.5422242524958E-08
(PID.TID 0000.0001) %MON dynstat_vvel_sd              =   3.1953914682663E-04
(PID.TID 0000.0001) %MON dynstat_vvel_del2            =   8.3794513635537E-07
(PID.TID 0000.0001) %MON dynstat_wvel_max             =   9.3535613852181E-04
(PID.TID 0000.0001) %MON dynstat_wvel_min             =  -1.0436596677770E-03
(PID.TID 0000.0001) %MON dynstat_wvel_mean            =   3.4667508922093E-10
(PID.TID 0000.0001) %MON dynstat_wvel_sd              =   1.5903324339142E-05
(PID.TID 0000.0001) %MON dynstat_wvel_del2            =   6.7414979493304E-08
(PID.TID 0000.0001) %MON dynstat_theta_max            =   1.2000000000000E+00
(PID.TID 0000.0001) %MON dynstat_theta_min            =  -1.0000000000000E+00
(PID.TID 0000.0001) %MON dynstat_theta_mean           =   5.6520623364038E-01
(PID.TID 0000.0001) %MON dynstat_theta_sd             =   8.4897253776905E-01
(PID.TID 0000.0001) %MON dynstat_theta_del2           =   2.3564948014537E-06
(PID.TID 0000.0001) %MON dynstat_salt_max             =   3.4700000000000E+01
(PID.TID 0000.0001) %MON dynstat_salt_min             =   3.4000000000000E+01
(PID.TID 0000.0001) %MON dynstat_salt_mean            =   3.4497996432412E+01
(PID.TID 0000.0001) %MON dynstat_salt_sd              =   2.7012509917145E-01
(PID.TID 0000.0001) %MON dynstat_salt_del2            =   9.3087439610609E-07
(PID.TID 0000.0001) %MON advcfl_uvel_max              =   2.2889048868245E-03
(PID.TID 0000.0001) %MON advcfl_vvel_max              =   1.6889976641219E-03
(PID.TID 0000.0001) %MON advcfl_wvel_max              =   5.2182983388849E-03
(PID.TID 0000.0001) %MON advcfl_W_hf_max              =   5.2182983388849E-03
(PID.TID 0000.0001) %MON pe_b_mean                    =  -6.8224064770391E-01
(PID.TID 0000.0001) %MON ke_max                       =   1.8949699148415E-04
(PID.TID 0000.0001) %MON ke_mean                      =   2.3923375159633E-07
(PID.TID 0000.0001) %MON ke_vol                       =   4.6183014382042E+12
(PID.TID 0000.0001) // =======================================================
(PID.TID 0000.0001) // End MONITOR dynamic field statistics
(PID.TID 0000.0001) // =======================================================
(PID.TID 0000.0001) // =======================================================
(PID.TID 0000.0001) // Begin OBCS MONITOR field statistics
(PID.TID 0000.0001) // =======================================================
(PID.TID 0000.0001) %MON obc_N_vVel_max               =   3.1093978165470E-08
(PID.TID 0000.0001) %MON obc_N_vVel_min               =   3.1093978165469E-08
(PID.TID 0000.0001) %MON obc_N_vVel_mean              =   3.1093978165469E-08
(PID.TID 0000.0001) %MON obc_N_vVel_sd                =  -6.5081024680733E-30
(PID.TID 0000.0001) %MON obc_N_vVel_Int               =   2.0522025589210E+00
(PID.TID 0000.0001) // =======================================================
(PID.TID 0000.0001) // End OBCS MONITOR field statistics
(PID.TID 0000.0001) // =======================================================
 cg2d: Sum(rhs),rhsMax =   3.00963149248519E+00  4.53045576382300E+02
(PID.TID 0000.0001)      cg2d_init_res =   2.79438751994819E-06
(PID.TID 0000.0001)      cg2d_iters(min,last) =      -1      74
(PID.TID 0000.0001)      cg2d_last_res =   8.66660662989415E-12
(PID.TID 0000.0001) // =======================================================
(PID.TID 0000.0001) // Begin MONITOR dynamic field statistics
(PID.TID 0000.0001) // =======================================================
(PID.TID 0000.0001) %MON time_tsnumber                =                  1037
(PID.TID 0000.0001) %MON time_secondsf                =   1.0370000000000E+05
(PID.TID 0000.0001) %MON dynstat_eta_max              =   5.7983442371705E+00
(PID.TID 0000.0001) %MON dynstat_eta_min              =  -1.4172669977162E+01
(PID.TID 0000.0001) %MON dynstat_eta_mean             =  -2.5250004337246E+00
(PID.TID 0000.0001) %MON dynstat_eta_sd               =   4.9413446474328E+00
(PID.TID 0000.0001) %MON dynstat_eta_del2             =   1.9058495136833E-01
(PID.TID 0000.0001) %MON dynstat_uvel_max             =   4.8851459843036E-03
(PID.TID 0000.0001) %MON dynstat_uvel_min             =  -2.2949483626170E-02
(PID.TID 0000.0001) %MON dynstat_uvel_mean            =  -6.8160320622597E-10
(PID.TID 0000.0001) %MON dynstat_uvel_sd              =   6.2094800369117E-04
(PID.TID 0000.0001) %MON dynstat_uvel_del2            =   9.5949031823854E-07
(PID.TID 0000.0001) %MON dynstat_vvel_max             =   1.6926039742840E-02
(PID.TID 0000.0001) %MON dynstat_vvel_min             =  -6.1670747332707E-03
(PID.TID 0000.0001) %MON dynstat_vvel_mean            =   8.0548239076906E-08
(PID.TID 0000.0001) %MON dynstat_vvel_sd              =   3.2020827454520E-04
(PID.TID 0000.0001) %MON dynstat_vvel_del2            =   8.3977987562134E-07
(PID.TID 0000.0001) %MON dynstat_wvel_max             =   9.3769269497019E-04
(PID.TID 0000.0001) %MON dynstat_wvel_min             =  -1.0468901025372E-03
(PID.TID 0000.0001) %MON dynstat_wvel_mean            =   3.3821338637500E-10
(PID.TID 0000.0001) %MON dynstat_wvel_sd              =   1.5957248118461E-05
(PID.TID 0000.0001) %MON dynstat_wvel_del2            =   6.7640307539798E-08
(PID.TID 0000.0001) %MON dynstat_theta_max            =   1.2000000000000E+00
(PID.TID 0000.0001) %MON dynstat_theta_min            =  -1.0000000000000E+00
(PID.TID 0000.0001) %MON dynstat_theta_mean           =   5.6520567338994E-01
(PID.TID 0000.0001) %MON dynstat_theta_sd             =   8.4897229985267E-01
(PID.TID 0000.0001) %MON dynstat_theta_del2           =   2.3614925823679E-06
(PID.TID 0000.0001) %MON dynstat_salt_max             =   3.4700000000000E+01
(PID.TID 0000.0001) %MON dynstat_salt_min             =   3.4000000000000E+01
(PID.TID 0000.0001) %MON dynstat_salt_mean            =   3.4497996208892E+01
(PID.TID 0000.0001) %MON dynstat_salt_sd              =   2.7012500999857E-01
(PID.TID 0000.0001) %MON dynstat_salt_del2            =   9.3286472073746E-07
(PID.TID 0000.0001) %MON advcfl_uvel_max              =   2.2949483626170E-03
(PID.TID 0000.0001) %MON advcfl_vvel_max              =   1.6926039742840E-03
(PID.TID 0000.0001) %MON advcfl_wvel_max              =   5.2344505126861E-03
(PID.TID 0000.0001) %MON advcfl_W_hf_max              =   5.2344505126861E-03
(PID.TID 0000.0001) %MON pe_b_mean                    =  -6.8223918132210E-01
(PID.TID 0000.0001) %MON ke_max                       =   1.9062680605114E-04
(PID.TID 0000.0001) %MON ke_mean                      =   2.4042920736380E-07
(PID.TID 0000.0001) %MON ke_vol                       =   4.6183014678356E+12
(PID.TID 0000.0001) // =======================================================
(PID.TID 0000.0001) // End MONITOR dynamic field statistics
(PID.TID 0000.0001) // =======================================================
(PID.TID 0000.0001) // =======================================================
(PID.TID 0000.0001) // Begin OBCS MONITOR field statistics
(PID.TID 0000.0001) // =======================================================
(PID.TID 0000.0001) %MON obc_N_vVel_max               =   4.6264155583885E-08
(PID.TID 0000.0001) %MON obc_N_vVel_min               =   4.6264155583884E-08
(PID.TID 0000.0001) %MON obc_N_vVel_mean              =   4.6264155583885E-08
(PID.TID 0000.0001) %MON obc_N_vVel_sd                =  -2.0825927897835E-28
(PID.TID 0000.0001) %MON obc_N_vVel_Int               =   3.0534342685364E+00
(PID.TID 0000.0001) // =======================================================
(PID.TID 0000.0001) // End OBCS MONITOR field statistics
(PID.TID 0000.0001) // =======================================================
 cg2d: Sum(rhs),rhsMax =   3.00962558967750E+00  4.53045572400251E+02
(PID.TID 0000.0001)      cg2d_init_res =   2.79996128906048E-06
(PID.TID 0000.0001)      cg2d_iters(min,last) =      -1      74
(PID.TID 0000.0001)      cg2d_last_res =   8.68323432236454E-12
(PID.TID 0000.0001) // =======================================================
(PID.TID 0000.0001) // Begin MONITOR dynamic field statistics
(PID.TID 0000.0001) // =======================================================
(PID.TID 0000.0001) %MON time_tsnumber                =                  1038
(PID.TID 0000.0001) %MON time_secondsf                =   1.0380000000000E+05
(PID.TID 0000.0001) %MON dynstat_eta_max              =   5.7983468357200E+00
(PID.TID 0000.0001) %MON dynstat_eta_min              =  -1.4172659362202E+01
(PID.TID 0000.0001) %MON dynstat_eta_mean             =  -2.5249954592331E+00
(PID.TID 0000.0001) %MON dynstat_eta_sd               =   4.9413432230278E+00
(PID.TID 0000.0001) %MON dynstat_eta_del2             =   1.9058496598795E-01
(PID.TID 0000.0001) %MON dynstat_uvel_max             =   4.8974717288308E-03
(PID.TID 0000.0001) %MON dynstat_uvel_min             =  -2.3010013870226E-02
(PID.TID 0000.0001) %MON dynstat_uvel_mean            =  -6.4460943610003E-10
(PID.TID 0000.0001) %MON dynstat_uvel_sd              =   6.2256419367561E-04
(PID.TID 0000.0001) %MON dynstat_uvel_del2            =   9.6183634481285E-07
(PID.TID 0000.0001) %MON dynstat_vvel_max             =   1.6962137997642E-02
(PID.TID 0000.0001) %MON dynstat_vvel_min             =  -6.1809200878802E-03
(PID.TID 0000.0001) %MON dynstat_vvel_mean            =   9.4988650431236E-08
(PID.TID 0000.0001) %MON dynstat_vvel_sd              =   3.2087709352669E-04
(PID.TID 0000.0001) %MON dynstat_vvel_del2            =   8.4160744232441E-07
(PID.TID 0000.0001) %MON dynstat_wvel_max             =   9.4003304149446E-04
(PID.TID 0000.0001) %MON dynstat_wvel_min             =  -1.0501285888016E-03
(PID.TID 0000.0001) %MON dynstat_wvel_mean            =   3.2883049445246E-10
(PID.TID 0000.0001) %MON dynstat_wvel_sd              =   1.6007988751337E-05
(PID.TID 0000.0001) %MON dynstat_wvel_del2            =   6.7850591868256E-08
(PID.TID 0000.0001) %MON dynstat_theta_max            =   1.2000000000000E+00
(PID.TID 0000.0001) %MON dynstat_theta_min            =  -1.0000000000000E+00
(PID.TID 0000.0001) %MON dynstat_theta_mean           =   5.6520511208843E-01
(PID.TID 0000.0001) %MON dynstat_theta_sd             =   8.4897206140664E-01
(PID.TID 0000.0001) %MON dynstat_theta_del2           =   2.3665113226192E-06
(PID.TID 0000.0001) %MON dynstat_salt_max             =   3.4700000000000E+01
(PID.TID 0000.0001) %MON dynstat_salt_min             =   3.4000000000000E+01
(PID.TID 0000.0001) %MON dynstat_salt_mean            =   3.4497995984950E+01
(PID.TID 0000.0001) %MON dynstat_salt_sd              =   2.7012492062087E-01
(PID.TID 0000.0001) %MON dynstat_salt_del2            =   9.3486159088744E-07
(PID.TID 0000.0001) %MON advcfl_uvel_max              =   2.3010013870226E-03
(PID.TID 0000.0001) %MON advcfl_vvel_max              =   1.6962137997642E-03
(PID.TID 0000.0001) %MON advcfl_wvel_max              =   5.2506429440078E-03
(PID.TID 0000.0001) %MON advcfl_W_hf_max              =   5.2506429440078E-03
(PID.TID 0000.0001) %MON pe_b_mean                    =  -6.8223771507022E-01
(PID.TID 0000.0001) %MON ke_max                       =   1.9176241727900E-04
(PID.TID 0000.0001) %MON ke_mean                      =   2.4162957318777E-07
(PID.TID 0000.0001) %MON ke_vol                       =   4.6183014974237E+12
(PID.TID 0000.0001) // =======================================================
(PID.TID 0000.0001) // End MONITOR dynamic field statistics
(PID.TID 0000.0001) // =======================================================
(PID.TID 0000.0001) // =======================================================
(PID.TID 0000.0001) // Begin OBCS MONITOR field statistics
(PID.TID 0000.0001) // =======================================================
(PID.TID 0000.0001) %MON obc_N_vVel_max               =   6.0855611924348E-08
(PID.TID 0000.0001) %MON obc_N_vVel_min               =   6.0855611924347E-08
(PID.TID 0000.0001) %MON obc_N_vVel_mean              =   6.0855611924348E-08
(PID.TID 0000.0001) %MON obc_N_vVel_sd                =  -1.8853775634782E-28
(PID.TID 0000.0001) %MON obc_N_vVel_Int               =   4.0164703870070E+00
(PID.TID 0000.0001) // =======================================================
(PID.TID 0000.0001) // End OBCS MONITOR field statistics
(PID.TID 0000.0001) // =======================================================
 cg2d: Sum(rhs),rhsMax =   3.00961969661736E+00  4.53045567996816E+02
(PID.TID 0000.0001)      cg2d_init_res =   2.80571524021507E-06
(PID.TID 0000.0001)      cg2d_iters(min,last) =      -1      74
(PID.TID 0000.0001)      cg2d_last_res =   8.70010435368052E-12
(PID.TID 0000.0001) // =======================================================
(PID.TID 0000.0001) // Begin MONITOR dynamic field statistics
(PID.TID 0000.0001) // =======================================================
(PID.TID 0000.0001) %MON time_tsnumber                =                  1039
(PID.TID 0000.0001) %MON time_secondsf                =   1.0390000000000E+05
(PID.TID 0000.0001) %MON dynstat_eta_max              =   5.7983494114871E+00
(PID.TID 0000.0001) %MON dynstat_eta_min              =  -1.4172648750024E+01
(PID.TID 0000.0001) %MON dynstat_eta_mean             =  -2.5249904905711E+00
(PID.TID 0000.0001) %MON dynstat_eta_sd               =   4.9413418000176E+00
(PID.TID 0000.0001) %MON dynstat_eta_del2             =   1.9058498063908E-01
(PID.TID 0000.0001) %MON dynstat_uvel_max             =   4.9098263786940E-03
(PID.TID 0000.0001) %MON dynstat_uvel_min             =  -2.3070639445664E-02
(PID.TID 0000.0001) %MON dynstat_uvel_mean            =  -6.0120620651783E-10
(PID.TID 0000.0001) %MON dynstat_uvel_sd              =   6.2418367714638E-04
(PID.TID 0000.0001) %MON dynstat_uvel_del2            =   9.6418833760052E-07
(PID.TID 0000.0001) %MON dynstat_vvel_max             =   1.6998271289350E-02
(PID.TID 0000.0001) %MON dynstat_vvel_min             =  -6.1947891658889E-03
(PID.TID 0000.0001) %MON dynstat_vvel_mean            =   1.0858636947866E-07
(PID.TID 0000.0001) %MON dynstat_vvel_sd              =   3.2154535033014E-04
(PID.TID 0000.0001) %MON dynstat_vvel_del2            =   8.4342678943131E-07
(PID.TID 0000.0001) %MON dynstat_wvel_max             =   9.4237717787906E-04
(PID.TID 0000.0001) %MON dynstat_wvel_min             =  -1.0533751259580E-03
(PID.TID 0000.0001) %MON dynstat_wvel_mean            =   3.1862037677344E-10
(PID.TID 0000.0001) %MON dynstat_wvel_sd              =   1.6054626894824E-05
(PID.TID 0000.0001) %MON dynstat_wvel_del2            =   6.8041527694071E-08
(PID.TID 0000.0001) %MON dynstat_theta_max            =   1.2000000000000E+00
(PID.TID 0000.0001) %MON dynstat_theta_min            =  -1.0000000000000E+00
(PID.TID 0000.0001) %MON dynstat_theta_mean           =   5.6520454973558E-01
(PID.TID 0000.0001) %MON dynstat_theta_sd             =   8.4897182242996E-01
(PID.TID 0000.0001) %MON dynstat_theta_del2           =   2.3715524388200E-06
(PID.TID 0000.0001) %MON dynstat_salt_max             =   3.4700000000000E+01
(PID.TID 0000.0001) %MON dynstat_salt_min             =   3.4000000000000E+01
(PID.TID 0000.0001) %MON dynstat_salt_mean            =   3.4497995760587E+01
(PID.TID 0000.0001) %MON dynstat_salt_sd              =   2.7012483103821E-01
(PID.TID 0000.0001) %MON dynstat_salt_del2            =   9.3686536009932E-07
(PID.TID 0000.0001) %MON advcfl_uvel_max              =   2.3070639445664E-03
(PID.TID 0000.0001) %MON advcfl_vvel_max              =   1.6998271289350E-03
(PID.TID 0000.0001) %MON advcfl_wvel_max              =   5.2668756297899E-03
(PID.TID 0000.0001) %MON advcfl_W_hf_max              =   5.2668756297899E-03
(PID.TID 0000.0001) %MON pe_b_mean                    =  -6.8223624875220E-01
(PID.TID 0000.0001) %MON ke_max                       =   1.9290384933528E-04
(PID.TID 0000.0001) %MON ke_mean                      =   2.4283478573275E-07
(PID.TID 0000.0001) %MON ke_vol                       =   4.6183015269722E+12
(PID.TID 0000.0001) // =======================================================
(PID.TID 0000.0001) // End MONITOR dynamic field statistics
(PID.TID 0000.0001) // =======================================================
(PID.TID 0000.0001) // =======================================================
(PID.TID 0000.0001) // Begin OBCS MONITOR field statistics
(PID.TID 0000.0001) // =======================================================
(PID.TID 0000.0001) %MON obc_N_vVel_max               =   7.4710325887386E-08
(PID.TID 0000.0001) %MON obc_N_vVel_min               =   7.4710325887384E-08
(PID.TID 0000.0001) %MON obc_N_vVel_mean              =   7.4710325887386E-08
(PID.TID 0000.0001) %MON obc_N_vVel_sd                =  -1.9563750449481E-28
(PID.TID 0000.0001) %MON obc_N_vVel_Int               =   4.9308815085675E+00
(PID.TID 0000.0001) // =======================================================
(PID.TID 0000.0001) // End OBCS MONITOR field statistics
(PID.TID 0000.0001) // =======================================================
 cg2d: Sum(rhs),rhsMax =   3.00961381253598E+00  4.53045563108821E+02
(PID.TID 0000.0001)      cg2d_init_res =   2.81160869163243E-06
(PID.TID 0000.0001)      cg2d_iters(min,last) =      -1      74
(PID.TID 0000.0001)      cg2d_last_res =   8.71726494903093E-12
(PID.TID 0000.0001) // =======================================================
(PID.TID 0000.0001) // Begin MONITOR dynamic field statistics
(PID.TID 0000.0001) // =======================================================
(PID.TID 0000.0001) %MON time_tsnumber                =                  1040
(PID.TID 0000.0001) %MON time_secondsf                =   1.0400000000000E+05
(PID.TID 0000.0001) %MON dynstat_eta_max              =   5.7983519662195E+00
(PID.TID 0000.0001) %MON dynstat_eta_min              =  -1.4172638138682E+01
(PID.TID 0000.0001) %MON dynstat_eta_mean             =  -2.5249855267416E+00
(PID.TID 0000.0001) %MON dynstat_eta_sd               =   4.9413403779029E+00
(PID.TID 0000.0001) %MON dynstat_eta_del2             =   1.9058499531913E-01
(PID.TID 0000.0001) %MON dynstat_uvel_max             =   4.9222099979538E-03
(PID.TID 0000.0001) %MON dynstat_uvel_min             =  -2.3131360197428E-02
(PID.TID 0000.0001) %MON dynstat_uvel_mean            =  -5.5165772698820E-10
(PID.TID 0000.0001) %MON dynstat_uvel_sd              =   6.2580645925459E-04
(PID.TID 0000.0001) %MON dynstat_uvel_del2            =   9.6654630266153E-07
(PID.TID 0000.0001) %MON dynstat_vvel_max             =   1.7034439502777E-02
(PID.TID 0000.0001) %MON dynstat_vvel_min             =  -6.2086819886478E-03
(PID.TID 0000.0001) %MON dynstat_vvel_mean            =   1.2119181262027E-07
(PID.TID 0000.0001) %MON dynstat_vvel_sd              =   3.2221285535236E-04
(PID.TID 0000.0001) %MON dynstat_vvel_del2            =   8.4523723035853E-07
(PID.TID 0000.0001) %MON dynstat_wvel_max             =   9.4472510321237E-04
(PID.TID 0000.0001) %MON dynstat_wvel_min             =  -1.0566297133919E-03
(PID.TID 0000.0001) %MON dynstat_wvel_mean            =   3.0768711748619E-10
(PID.TID 0000.0001) %MON dynstat_wvel_sd              =   1.6096379855000E-05
(PID.TID 0000.0001) %MON dynstat_wvel_del2            =   6.8209057166157E-08
(PID.TID 0000.0001) %MON dynstat_theta_max            =   1.2000000000000E+00
(PID.TID 0000.0001) %MON dynstat_theta_min            =  -1.0000000000000E+00
(PID.TID 0000.0001) %MON dynstat_theta_mean           =   5.6520398633117E-01
(PID.TID 0000.0001) %MON dynstat_theta_sd             =   8.4897158292362E-01
(PID.TID 0000.0001) %MON dynstat_theta_del2           =   2.3766167172533E-06
(PID.TID 0000.0001) %MON dynstat_salt_max             =   3.4700000000000E+01
(PID.TID 0000.0001) %MON dynstat_salt_min             =   3.4000000000000E+01
(PID.TID 0000.0001) %MON dynstat_salt_mean            =   3.4497995535802E+01
(PID.TID 0000.0001) %MON dynstat_salt_sd              =   2.7012474125051E-01
(PID.TID 0000.0001) %MON dynstat_salt_del2            =   9.3887626888122E-07
(PID.TID 0000.0001) %MON advcfl_uvel_max              =   2.3131360197428E-03
(PID.TID 0000.0001) %MON advcfl_vvel_max              =   1.7034439502777E-03
(PID.TID 0000.0001) %MON advcfl_wvel_max              =   5.2831485669596E-03
(PID.TID 0000.0001) %MON advcfl_W_hf_max              =   5.2831485669596E-03
(PID.TID 0000.0001) %MON pe_b_mean                    =  -6.8223478214050E-01
(PID.TID 0000.0001) %MON ke_max                       =   1.9405112647788E-04
(PID.TID 0000.0001) %MON ke_mean                      =   2.4404480159234E-07
(PID.TID 0000.0001) %MON ke_vol                       =   4.6183015564860E+12
(PID.TID 0000.0001) // =======================================================
(PID.TID 0000.0001) // End MONITOR dynamic field statistics
(PID.TID 0000.0001) // =======================================================
(PID.TID 0000.0001) // =======================================================
(PID.TID 0000.0001) // Begin OBCS MONITOR field statistics
(PID.TID 0000.0001) // =======================================================
(PID.TID 0000.0001) %MON obc_N_vVel_max               =   8.7676624617045E-08
(PID.TID 0000.0001) %MON obc_N_vVel_min               =   8.7676624617045E-08
(PID.TID 0000.0001) %MON obc_N_vVel_mean              =   8.7676624617045E-08
(PID.TID 0000.0001) %MON obc_N_vVel_sd                =   1.1580429779916E-14
(PID.TID 0000.0001) %MON obc_N_vVel_Int               =   5.7866572247250E+00
(PID.TID 0000.0001) // =======================================================
(PID.TID 0000.0001) // End OBCS MONITOR field statistics
(PID.TID 0000.0001) // =======================================================
 cg2d: Sum(rhs),rhsMax =   3.00960793645228E+00  4.53045557676383E+02
(PID.TID 0000.0001)      cg2d_init_res =   2.81760127785218E-06
(PID.TID 0000.0001)      cg2d_iters(min,last) =      -1      74
(PID.TID 0000.0001)      cg2d_last_res =   8.73475379165397E-12
(PID.TID 0000.0001) // =======================================================
(PID.TID 0000.0001) // Begin MONITOR dynamic field statistics
(PID.TID 0000.0001) // =======================================================
(PID.TID 0000.0001) %MON time_tsnumber                =                  1041
(PID.TID 0000.0001) %MON time_secondsf                =   1.0410000000000E+05
(PID.TID 0000.0001) %MON dynstat_eta_max              =   5.7983545019120E+00
(PID.TID 0000.0001) %MON dynstat_eta_min              =  -1.4172627525964E+01
(PID.TID 0000.0001) %MON dynstat_eta_mean             =  -2.5249805665876E+00
(PID.TID 0000.0001) %MON dynstat_eta_sd               =   4.9413389561427E+00
(PID.TID 0000.0001) %MON dynstat_eta_del2             =   1.9058501002550E-01
(PID.TID 0000.0001) %MON dynstat_uvel_max             =   4.9346226502429E-03
(PID.TID 0000.0001) %MON dynstat_uvel_min             =  -2.3192175970208E-02
(PID.TID 0000.0001) %MON dynstat_uvel_mean            =  -4.9630122892903E-10
(PID.TID 0000.0001) %MON dynstat_uvel_sd              =   6.2743254510647E-04
(PID.TID 0000.0001) %MON dynstat_uvel_del2            =   9.6891024550741E-07
(PID.TID 0000.0001) %MON dynstat_vvel_max             =   1.7070642523460E-02
(PID.TID 0000.0001) %MON dynstat_vvel_min             =  -6.2225985762199E-03
(PID.TID 0000.0001) %MON dynstat_vvel_mean            =   1.3266461908732E-07
(PID.TID 0000.0001) %MON dynstat_vvel_sd              =   3.2287949329696E-04
(PID.TID 0000.0001) %MON dynstat_vvel_del2            =   8.4703850695347E-07
(PID.TID 0000.0001) %MON dynstat_wvel_max             =   9.4707681660828E-04
(PID.TID 0000.0001) %MON dynstat_wvel_min             =  -1.0598923503930E-03
(PID.TID 0000.0001) %MON dynstat_wvel_mean            =   2.9614353918169E-10
(PID.TID 0000.0001) %MON dynstat_wvel_sd              =   1.6132651044609E-05
(PID.TID 0000.0001) %MON dynstat_wvel_del2            =   6.8349725777542E-08
(PID.TID 0000.0001) %MON dynstat_theta_max            =   1.2000000000000E+00
(PID.TID 0000.0001) %MON dynstat_theta_min            =  -1.0000000000000E+00
(PID.TID 0000.0001) %MON dynstat_theta_mean           =   5.6520342187486E-01
(PID.TID 0000.0001) %MON dynstat_theta_sd             =   8.4897134288704E-01
(PID.TID 0000.0001) %MON dynstat_theta_del2           =   2.3817049448166E-06
(PID.TID 0000.0001) %MON dynstat_salt_max             =   3.4700000000000E+01
(PID.TID 0000.0001) %MON dynstat_salt_min             =   3.4000000000000E+01
(PID.TID 0000.0001) %MON dynstat_salt_mean            =   3.4497995310595E+01
(PID.TID 0000.0001) %MON dynstat_salt_sd              =   2.7012465125792E-01
(PID.TID 0000.0001) %MON dynstat_salt_del2            =   9.4089442472303E-07
(PID.TID 0000.0001) %MON advcfl_uvel_max              =   2.3192175970208E-03
(PID.TID 0000.0001) %MON advcfl_vvel_max              =   1.7070642523460E-03
(PID.TID 0000.0001) %MON advcfl_wvel_max              =   5.2994617519649E-03
(PID.TID 0000.0001) %MON advcfl_W_hf_max              =   5.2994617519649E-03
(PID.TID 0000.0001) %MON pe_b_mean                    =  -6.8223331497795E-01
(PID.TID 0000.0001) %MON ke_max                       =   1.9520427305529E-04
(PID.TID 0000.0001) %MON ke_mean                      =   2.4525960088048E-07
(PID.TID 0000.0001) %MON ke_vol                       =   4.6183015859712E+12
(PID.TID 0000.0001) // =======================================================
(PID.TID 0000.0001) // End MONITOR dynamic field statistics
(PID.TID 0000.0001) // =======================================================
(PID.TID 0000.0001) // =======================================================
(PID.TID 0000.0001) // Begin OBCS MONITOR field statistics
(PID.TID 0000.0001) // =======================================================
(PID.TID 0000.0001) %MON obc_N_vVel_max               =   9.9610923279209E-08
(PID.TID 0000.0001) %MON obc_N_vVel_min               =   9.9610923279208E-08
(PID.TID 0000.0001) %MON obc_N_vVel_mean              =   9.9610923279209E-08
(PID.TID 0000.0001) %MON obc_N_vVel_sd                =  -1.0412963948917E-28
(PID.TID 0000.0001) %MON obc_N_vVel_Int               =   6.5743209364278E+00
(PID.TID 0000.0001) // =======================================================
(PID.TID 0000.0001) // End OBCS MONITOR field statistics
(PID.TID 0000.0001) // =======================================================
 cg2d: Sum(rhs),rhsMax =   3.00960206718122E+00  4.53045551643773E+02
(PID.TID 0000.0001)      cg2d_init_res =   2.82364768904200E-06
(PID.TID 0000.0001)      cg2d_iters(min,last) =      -1      74
(PID.TID 0000.0001)      cg2d_last_res =   8.75257547695979E-12
(PID.TID 0000.0001) // =======================================================
(PID.TID 0000.0001) // Begin MONITOR dynamic field statistics
(PID.TID 0000.0001) // =======================================================
(PID.TID 0000.0001) %MON time_tsnumber                =                  1042
(PID.TID 0000.0001) %MON time_secondsf                =   1.0420000000000E+05
(PID.TID 0000.0001) %MON dynstat_eta_max              =   5.7983570207886E+00
(PID.TID 0000.0001) %MON dynstat_eta_min              =  -1.4172616909413E+01
(PID.TID 0000.0001) %MON dynstat_eta_mean             =  -2.5249756088044E+00
(PID.TID 0000.0001) %MON dynstat_eta_sd               =   4.9413375341596E+00
(PID.TID 0000.0001) %MON dynstat_eta_del2             =   1.9058502475558E-01
(PID.TID 0000.0001) %MON dynstat_uvel_max             =   4.9470643987881E-03
(PID.TID 0000.0001) %MON dynstat_uvel_min             =  -2.3253086608353E-02
(PID.TID 0000.0001) %MON dynstat_uvel_mean            =  -4.3554322760585E-10
(PID.TID 0000.0001) %MON dynstat_uvel_sd              =   6.2906193976412E-04
(PID.TID 0000.0001) %MON dynstat_uvel_del2            =   9.7128017116770E-07
(PID.TID 0000.0001) %MON dynstat_vvel_max             =   1.7106880237960E-02
(PID.TID 0000.0001) %MON dynstat_vvel_min             =  -6.2365389471593E-03
(PID.TID 0000.0001) %MON dynstat_vvel_mean            =   1.4287526727699E-07
(PID.TID 0000.0001) %MON dynstat_vvel_sd              =   3.2354523087970E-04
(PID.TID 0000.0001) %MON dynstat_vvel_del2            =   8.4883084578898E-07
(PID.TID 0000.0001) %MON dynstat_wvel_max             =   9.4943231713413E-04
(PID.TID 0000.0001) %MON dynstat_wvel_min             =  -1.0631630362819E-03
(PID.TID 0000.0001) %MON dynstat_wvel_mean            =   2.8411029702226E-10
(PID.TID 0000.0001) %MON dynstat_wvel_sd              =   1.6163074227060E-05
(PID.TID 0000.0001) %MON dynstat_wvel_del2            =   6.8461041093100E-08
(PID.TID 0000.0001) %MON dynstat_theta_max            =   1.2000000000000E+00
(PID.TID 0000.0001) %MON dynstat_theta_min            =  -1.0000000000000E+00
(PID.TID 0000.0001) %MON dynstat_theta_mean           =   5.6520285636628E-01
(PID.TID 0000.0001) %MON dynstat_theta_sd             =   8.4897110231923E-01
(PID.TID 0000.0001) %MON dynstat_theta_del2           =   2.3868167759652E-06
(PID.TID 0000.0001) %MON dynstat_salt_max             =   3.4700000000000E+01
(PID.TID 0000.0001) %MON dynstat_salt_min             =   3.4000000000000E+01
(PID.TID 0000.0001) %MON dynstat_salt_mean            =   3.4497995084965E+01
(PID.TID 0000.0001) %MON dynstat_salt_sd              =   2.7012456106002E-01
(PID.TID 0000.0001) %MON dynstat_salt_del2            =   9.4291978213839E-07
(PID.TID 0000.0001) %MON advcfl_uvel_max              =   2.3253086608353E-03
(PID.TID 0000.0001) %MON advcfl_vvel_max              =   1.7106880237960E-03
(PID.TID 0000.0001) %MON advcfl_wvel_max              =   5.3158151814097E-03
(PID.TID 0000.0001) %MON advcfl_W_hf_max              =   5.3158151814097E-03
(PID.TID 0000.0001) %MON pe_b_mean                    =  -6.8223184698037E-01
(PID.TID 0000.0001) %MON ke_max                       =   1.9636331350851E-04
(PID.TID 0000.0001) %MON ke_mean                      =   2.4647918997560E-07
(PID.TID 0000.0001) %MON ke_vol                       =   4.6183016154345E+12
(PID.TID 0000.0001) // =======================================================
(PID.TID 0000.0001) // End MONITOR dynamic field statistics
(PID.TID 0000.0001) // =======================================================
(PID.TID 0000.0001) // =======================================================
(PID.TID 0000.0001) // Begin OBCS MONITOR field statistics
(PID.TID 0000.0001) // =======================================================
(PID.TID 0000.0001) %MON obc_N_vVel_max               =   1.1037934734168E-07
(PID.TID 0000.0001) %MON obc_N_vVel_min               =   1.1037934734168E-07
(PID.TID 0000.0001) %MON obc_N_vVel_mean              =   1.1037934734168E-07
(PID.TID 0000.0001) %MON obc_N_vVel_sd                =   1.9620502586525E-14
(PID.TID 0000.0001) %MON obc_N_vVel_Int               =   7.2850369245510E+00
(PID.TID 0000.0001) // =======================================================
(PID.TID 0000.0001) // End OBCS MONITOR field statistics
(PID.TID 0000.0001) // =======================================================
 cg2d: Sum(rhs),rhsMax =   3.00959620334832E+00  4.53045544959295E+02
(PID.TID 0000.0001)      cg2d_init_res =   2.82971453645500E-06
(PID.TID 0000.0001)      cg2d_iters(min,last) =      -1      74
(PID.TID 0000.0001)      cg2d_last_res =   8.77076591345243E-12
(PID.TID 0000.0001) // =======================================================
(PID.TID 0000.0001) // Begin MONITOR dynamic field statistics
(PID.TID 0000.0001) // =======================================================
(PID.TID 0000.0001) %MON time_tsnumber                =                  1043
(PID.TID 0000.0001) %MON time_secondsf                =   1.0430000000000E+05
(PID.TID 0000.0001) %MON dynstat_eta_max              =   5.7983595252732E+00
(PID.TID 0000.0001) %MON dynstat_eta_min              =  -1.4172606286340E+01
(PID.TID 0000.0001) %MON dynstat_eta_mean             =  -2.5249706519507E+00
(PID.TID 0000.0001) %MON dynstat_eta_sd               =   4.9413361113449E+00
(PID.TID 0000.0001) %MON dynstat_eta_del2             =   1.9058503950677E-01
(PID.TID 0000.0001) %MON dynstat_uvel_max             =   4.9595353063658E-03
(PID.TID 0000.0001) %MON dynstat_uvel_min             =  -2.3314091956031E-02
(PID.TID 0000.0001) %MON dynstat_uvel_mean            =  -3.6985883053876E-10
(PID.TID 0000.0001) %MON dynstat_uvel_sd              =   6.3069464825089E-04
(PID.TID 0000.0001) %MON dynstat_uvel_del2            =   9.7365608429067E-07
(PID.TID 0000.0001) %MON dynstat_vvel_max             =   1.7143152534114E-02
(PID.TID 0000.0001) %MON dynstat_vvel_min             =  -6.2505031184408E-03
(PID.TID 0000.0001) %MON dynstat_vvel_mean            =   1.5170659098547E-07
(PID.TID 0000.0001) %MON dynstat_vvel_sd              =   3.2421012114337E-04
(PID.TID 0000.0001) %MON dynstat_vvel_del2            =   8.5061499618285E-07
(PID.TID 0000.0001) %MON dynstat_wvel_max             =   9.5179160384239E-04
(PID.TID 0000.0001) %MON dynstat_wvel_min             =  -1.0664417703325E-03
(PID.TID 0000.0001) %MON dynstat_wvel_mean            =   2.7171460947629E-10
(PID.TID 0000.0001) %MON dynstat_wvel_sd              =   1.6187548906090E-05
(PID.TID 0000.0001) %MON dynstat_wvel_del2            =   6.8541797863524E-08
(PID.TID 0000.0001) %MON dynstat_theta_max            =   1.2000000000000E+00
(PID.TID 0000.0001) %MON dynstat_theta_min            =  -1.0000000000000E+00
(PID.TID 0000.0001) %MON dynstat_theta_mean           =   5.6520228980491E-01
(PID.TID 0000.0001) %MON dynstat_theta_sd             =   8.4897086121781E-01
(PID.TID 0000.0001) %MON dynstat_theta_del2           =   2.3919509524137E-06
(PID.TID 0000.0001) %MON dynstat_salt_max             =   3.4700000000000E+01
(PID.TID 0000.0001) %MON dynstat_salt_min             =   3.4000000000000E+01
(PID.TID 0000.0001) %MON dynstat_salt_mean            =   3.4497994858913E+01
(PID.TID 0000.0001) %MON dynstat_salt_sd              =   2.7012447065608E-01
(PID.TID 0000.0001) %MON dynstat_salt_del2            =   9.4495212880543E-07
(PID.TID 0000.0001) %MON advcfl_uvel_max              =   2.3314091956031E-03
(PID.TID 0000.0001) %MON advcfl_vvel_max              =   1.7143152534114E-03
(PID.TID 0000.0001) %MON advcfl_wvel_max              =   5.3322088516627E-03
(PID.TID 0000.0001) %MON advcfl_W_hf_max              =   5.3322088516627E-03
(PID.TID 0000.0001) %MON pe_b_mean                    =  -6.8223037783914E-01
(PID.TID 0000.0001) %MON ke_max                       =   1.9752827237018E-04
(PID.TID 0000.0001) %MON ke_mean                      =   2.4770360319854E-07
(PID.TID 0000.0001) %MON ke_vol                       =   4.6183016448837E+12
(PID.TID 0000.0001) // =======================================================
(PID.TID 0000.0001) // End MONITOR dynamic field statistics
(PID.TID 0000.0001) // =======================================================
(PID.TID 0000.0001) // =======================================================
(PID.TID 0000.0001) // Begin OBCS MONITOR field statistics
(PID.TID 0000.0001) // =======================================================
(PID.TID 0000.0001) %MON obc_N_vVel_max               =   1.1985927259721E-07
(PID.TID 0000.0001) %MON obc_N_vVel_min               =   1.1985927259721E-07
(PID.TID 0000.0001) %MON obc_N_vVel_mean              =   1.1985927259721E-07
(PID.TID 0000.0001) %MON obc_N_vVel_sd                =  -1.5777218104420E-28
(PID.TID 0000.0001) %MON obc_N_vVel_Int               =   7.9107119914159E+00
(PID.TID 0000.0001) // =======================================================
(PID.TID 0000.0001) // End OBCS MONITOR field statistics
(PID.TID 0000.0001) // =======================================================
 cg2d: Sum(rhs),rhsMax =   3.00959034339361E+00  4.53045537577009E+02
(PID.TID 0000.0001)      cg2d_init_res =   2.83577599734995E-06
(PID.TID 0000.0001)      cg2d_iters(min,last) =      -1      74
(PID.TID 0000.0001)      cg2d_last_res =   8.78932487518262E-12
(PID.TID 0000.0001) // =======================================================
(PID.TID 0000.0001) // Begin MONITOR dynamic field statistics
(PID.TID 0000.0001) // =======================================================
(PID.TID 0000.0001) %MON time_tsnumber                =                  1044
(PID.TID 0000.0001) %MON time_secondsf                =   1.0440000000000E+05
(PID.TID 0000.0001) %MON dynstat_eta_max              =   5.7983620179642E+00
(PID.TID 0000.0001) %MON dynstat_eta_min              =  -1.4172595653850E+01
(PID.TID 0000.0001) %MON dynstat_eta_mean             =  -2.5249656944617E+00
(PID.TID 0000.0001) %MON dynstat_eta_sd               =   4.9413346870639E+00
(PID.TID 0000.0001) %MON dynstat_eta_del2             =   1.9058505427658E-01
(PID.TID 0000.0001) %MON dynstat_uvel_max             =   4.9720354353182E-03
(PID.TID 0000.0001) %MON dynstat_uvel_min             =  -2.3375191857152E-02
(PID.TID 0000.0001) %MON dynstat_uvel_mean            =  -2.9978451383538E-10
(PID.TID 0000.0001) %MON dynstat_uvel_sd              =   6.3233067556680E-04
(PID.TID 0000.0001) %MON dynstat_uvel_del2            =   9.7603798930179E-07
(PID.TID 0000.0001) %MON dynstat_vvel_max             =   1.7179459301167E-02
(PID.TID 0000.0001) %MON dynstat_vvel_min             =  -6.2644911053349E-03
(PID.TID 0000.0001) %MON dynstat_vvel_mean            =   1.5905518247282E-07
(PID.TID 0000.0001) %MON dynstat_vvel_sd              =   3.2487430387765E-04
(PID.TID 0000.0001) %MON dynstat_vvel_del2            =   8.5239224247484E-07
(PID.TID 0000.0001) %MON dynstat_wvel_max             =   9.5415467577864E-04
(PID.TID 0000.0001) %MON dynstat_wvel_min             =  -1.0697285518205E-03
(PID.TID 0000.0001) %MON dynstat_wvel_mean            =   2.5908904638401E-10
(PID.TID 0000.0001) %MON dynstat_wvel_sd              =   1.6206263485937E-05
(PID.TID 0000.0001) %MON dynstat_wvel_del2            =   6.8592334968930E-08
(PID.TID 0000.0001) %MON dynstat_theta_max            =   1.2000000000000E+00
(PID.TID 0000.0001) %MON dynstat_theta_min            =  -1.0000000000000E+00
(PID.TID 0000.0001) %MON dynstat_theta_mean           =   5.6520172218995E-01
(PID.TID 0000.0001) %MON dynstat_theta_sd             =   8.4897061958125E-01
(PID.TID 0000.0001) %MON dynstat_theta_del2           =   2.3971059306310E-06
(PID.TID 0000.0001) %MON dynstat_salt_max             =   3.4700000000000E+01
(PID.TID 0000.0001) %MON dynstat_salt_min             =   3.4000000000000E+01
(PID.TID 0000.0001) %MON dynstat_salt_mean            =   3.4497994632439E+01
(PID.TID 0000.0001) %MON dynstat_salt_sd              =   2.7012438004566E-01
(PID.TID 0000.0001) %MON dynstat_salt_del2            =   9.4699117928232E-07
(PID.TID 0000.0001) %MON advcfl_uvel_max              =   2.3375191857152E-03
(PID.TID 0000.0001) %MON advcfl_vvel_max              =   1.7179459301167E-03
(PID.TID 0000.0001) %MON advcfl_wvel_max              =   5.3486427591025E-03
(PID.TID 0000.0001) %MON advcfl_W_hf_max              =   5.3486427591025E-03
(PID.TID 0000.0001) %MON pe_b_mean                    =  -6.8222890722393E-01
(PID.TID 0000.0001) %MON ke_max                       =   1.9869917426628E-04
(PID.TID 0000.0001) %MON ke_mean                      =   2.4893290324760E-07
(PID.TID 0000.0001) %MON ke_vol                       =   4.6183016743274E+12
(PID.TID 0000.0001) // =======================================================
(PID.TID 0000.0001) // End MONITOR dynamic field statistics
(PID.TID 0000.0001) // =======================================================
(PID.TID 0000.0001) // =======================================================
(PID.TID 0000.0001) // Begin OBCS MONITOR field statistics
(PID.TID 0000.0001) // =======================================================
(PID.TID 0000.0001) %MON obc_N_vVel_max               =   1.2794077930754E-07
(PID.TID 0000.0001) %MON obc_N_vVel_min               =   1.2794077930754E-07
(PID.TID 0000.0001) %MON obc_N_vVel_mean              =   1.2794077930754E-07
(PID.TID 0000.0001) %MON obc_N_vVel_sd                =   5.0242958677881E-15
(PID.TID 0000.0001) %MON obc_N_vVel_Int               =   8.4440914342974E+00
(PID.TID 0000.0001) // =======================================================
(PID.TID 0000.0001) // End OBCS MONITOR field statistics
(PID.TID 0000.0001) // =======================================================
 cg2d: Sum(rhs),rhsMax =   3.00958448559344E+00  4.53045529456513E+02
(PID.TID 0000.0001)      cg2d_init_res =   2.84182065086577E-06
(PID.TID 0000.0001)      cg2d_iters(min,last) =      -1      74
(PID.TID 0000.0001)      cg2d_last_res =   8.80828130142995E-12
(PID.TID 0000.0001) // =======================================================
(PID.TID 0000.0001) // Begin MONITOR dynamic field statistics
(PID.TID 0000.0001) // =======================================================
(PID.TID 0000.0001) %MON time_tsnumber                =                  1045
(PID.TID 0000.0001) %MON time_secondsf                =   1.0450000000000E+05
(PID.TID 0000.0001) %MON dynstat_eta_max              =   5.7983645016180E+00
(PID.TID 0000.0001) %MON dynstat_eta_min              =  -1.4172585008913E+01
(PID.TID 0000.0001) %MON dynstat_eta_mean             =  -2.5249607346663E+00
(PID.TID 0000.0001) %MON dynstat_eta_sd               =   4.9413332606672E+00
(PID.TID 0000.0001) %MON dynstat_eta_del2             =   1.9058506906280E-01
(PID.TID 0000.0001) %MON dynstat_uvel_max             =   4.9845648475495E-03
(PID.TID 0000.0001) %MON dynstat_uvel_min             =  -2.3436386155349E-02
(PID.TID 0000.0001) %MON dynstat_uvel_mean            =  -2.2590543331030E-10
(PID.TID 0000.0001) %MON dynstat_uvel_sd              =   6.3397002671052E-04
(PID.TID 0000.0001) %MON dynstat_uvel_del2            =   9.7842589072043E-07
(PID.TID 0000.0001) %MON dynstat_vvel_max             =   1.7215800429361E-02
(PID.TID 0000.0001) %MON dynstat_vvel_min             =  -6.2785029212371E-03
(PID.TID 0000.0001) %MON dynstat_vvel_mean            =   1.6483266513453E-07
(PID.TID 0000.0001) %MON dynstat_vvel_sd              =   3.2553800187733E-04
(PID.TID 0000.0001) %MON dynstat_vvel_del2            =   8.5416438612404E-07
(PID.TID 0000.0001) %MON dynstat_wvel_max             =   9.5652153190521E-04
(PID.TID 0000.0001) %MON dynstat_wvel_min             =  -1.0730233800999E-03
(PID.TID 0000.0001) %MON dynstat_wvel_mean            =   2.4636999699255E-10
(PID.TID 0000.0001) %MON dynstat_wvel_sd              =   1.6219703461856E-05
(PID.TID 0000.0001) %MON dynstat_wvel_del2            =   6.8614694910359E-08
(PID.TID 0000.0001) %MON dynstat_theta_max            =   1.2000000000000E+00
(PID.TID 0000.0001) %MON dynstat_theta_min            =  -1.0000000000000E+00
(PID.TID 0000.0001) %MON dynstat_theta_mean           =   5.6520115352038E-01
(PID.TID 0000.0001) %MON dynstat_theta_sd             =   8.4897037741174E-01
(PID.TID 0000.0001) %MON dynstat_theta_del2           =   2.4022795363978E-06
(PID.TID 0000.0001) %MON dynstat_salt_max             =   3.4700000000000E+01
(PID.TID 0000.0001) %MON dynstat_salt_min             =   3.4000000000000E+01
(PID.TID 0000.0001) %MON dynstat_salt_mean            =   3.4497994405541E+01
(PID.TID 0000.0001) %MON dynstat_salt_sd              =   2.7012428922943E-01
(PID.TID 0000.0001) %MON dynstat_salt_del2            =   9.4903655863360E-07
(PID.TID 0000.0001) %MON advcfl_uvel_max              =   2.3436386155349E-03
(PID.TID 0000.0001) %MON advcfl_vvel_max              =   1.7215800429361E-03
(PID.TID 0000.0001) %MON advcfl_wvel_max              =   5.3651169004994E-03
(PID.TID 0000.0001) %MON advcfl_W_hf_max              =   5.3651169004994E-03
(PID.TID 0000.0001) %MON pe_b_mean                    =  -6.8222743478664E-01
(PID.TID 0000.0001) %MON ke_max                       =   1.9987604391467E-04
(PID.TID 0000.0001) %MON ke_mean                      =   2.5016718028411E-07
(PID.TID 0000.0001) %MON ke_vol                       =   4.6183017037749E+12
(PID.TID 0000.0001) // =======================================================
(PID.TID 0000.0001) // End MONITOR dynamic field statistics
(PID.TID 0000.0001) // =======================================================
(PID.TID 0000.0001) // =======================================================
(PID.TID 0000.0001) // Begin OBCS MONITOR field statistics
(PID.TID 0000.0001) // =======================================================
(PID.TID 0000.0001) %MON obc_N_vVel_max               =   1.3452799307314E-07
(PID.TID 0000.0001) %MON obc_N_vVel_min               =   1.3452799307314E-07
(PID.TID 0000.0001) %MON obc_N_vVel_mean              =   1.3452799307314E-07
(PID.TID 0000.0001) %MON obc_N_vVel_sd                =  -3.5656512915990E-28
(PID.TID 0000.0001) %MON obc_N_vVel_Int               =   8.8788475428272E+00
(PID.TID 0000.0001) // =======================================================
(PID.TID 0000.0001) // End OBCS MONITOR field statistics
(PID.TID 0000.0001) // =======================================================
 cg2d: Sum(rhs),rhsMax =   3.00957862807727E+00  4.53045520563635E+02
(PID.TID 0000.0001)      cg2d_init_res =   2.84785127670002E-06
(PID.TID 0000.0001)      cg2d_iters(min,last) =      -1      74
(PID.TID 0000.0001)      cg2d_last_res =   8.82764958474993E-12
(PID.TID 0000.0001) // =======================================================
(PID.TID 0000.0001) // Begin MONITOR dynamic field statistics
(PID.TID 0000.0001) // =======================================================
(PID.TID 0000.0001) %MON time_tsnumber                =                  1046
(PID.TID 0000.0001) %MON time_secondsf                =   1.0460000000000E+05
(PID.TID 0000.0001) %MON dynstat_eta_max              =   5.7983669791138E+00
(PID.TID 0000.0001) %MON dynstat_eta_min              =  -1.4172574348329E+01
(PID.TID 0000.0001) %MON dynstat_eta_mean             =  -2.5249557708046E+00
(PID.TID 0000.0001) %MON dynstat_eta_sd               =   4.9413318314948E+00
(PID.TID 0000.0001) %MON dynstat_eta_del2             =   1.9058508386335E-01
(PID.TID 0000.0001) %MON dynstat_uvel_max             =   4.9971236044826E-03
(PID.TID 0000.0001) %MON dynstat_uvel_min             =  -2.3497674693838E-02
(PID.TID 0000.0001) %MON dynstat_uvel_mean            =  -1.4885218639776E-10
(PID.TID 0000.0001) %MON dynstat_uvel_sd              =   6.3561270669486E-04
(PID.TID 0000.0001) %MON dynstat_uvel_del2            =   9.8081979305491E-07
(PID.TID 0000.0001) %MON dynstat_vvel_max             =   1.7252175811319E-02
(PID.TID 0000.0001) %MON dynstat_vvel_min             =  -6.2925385776262E-03
(PID.TID 0000.0001) %MON dynstat_vvel_mean            =   1.6896681885602E-07
(PID.TID 0000.0001) %MON dynstat_vvel_sd              =   3.2620151293974E-04
(PID.TID 0000.0001) %MON dynstat_vvel_del2            =   8.5593369424334E-07
(PID.TID 0000.0001) %MON dynstat_wvel_max             =   9.5889217124546E-04
(PID.TID 0000.0001) %MON dynstat_wvel_min             =  -1.0763262544945E-03
(PID.TID 0000.0001) %MON dynstat_wvel_mean            =   2.3369640222690E-10
(PID.TID 0000.0001) %MON dynstat_wvel_sd              =   1.6228642688457E-05
(PID.TID 0000.0001) %MON dynstat_wvel_del2            =   6.8612663008444E-08
(PID.TID 0000.0001) %MON dynstat_theta_max            =   1.2000000000000E+00
(PID.TID 0000.0001) %MON dynstat_theta_min            =  -1.0000000000000E+00
(PID.TID 0000.0001) %MON dynstat_theta_mean           =   5.6520058379514E-01
(PID.TID 0000.0001) %MON dynstat_theta_sd             =   8.4897013471296E-01
(PID.TID 0000.0001) %MON dynstat_theta_del2           =   2.4074690652836E-06
(PID.TID 0000.0001) %MON dynstat_salt_max             =   3.4700000000000E+01
(PID.TID 0000.0001) %MON dynstat_salt_min             =   3.4000000000000E+01
(PID.TID 0000.0001) %MON dynstat_salt_mean            =   3.4497994178219E+01
(PID.TID 0000.0001) %MON dynstat_salt_sd              =   2.7012419820839E-01
(PID.TID 0000.0001) %MON dynstat_salt_del2            =   9.5108734307098E-07
(PID.TID 0000.0001) %MON advcfl_uvel_max              =   2.3497674693838E-03
(PID.TID 0000.0001) %MON advcfl_vvel_max              =   1.7252175811319E-03
(PID.TID 0000.0001) %MON advcfl_wvel_max              =   5.3816312724725E-03
(PID.TID 0000.0001) %MON advcfl_W_hf_max              =   5.3816312724725E-03
(PID.TID 0000.0001) %MON pe_b_mean                    =  -6.8222596016497E-01
(PID.TID 0000.0001) %MON ke_max                       =   2.0105890612645E-04
(PID.TID 0000.0001) %MON ke_mean                      =   2.5140654960829E-07
(PID.TID 0000.0001) %MON ke_vol                       =   4.6183017332361E+12
(PID.TID 0000.0001) // =======================================================
(PID.TID 0000.0001) // End MONITOR dynamic field statistics
(PID.TID 0000.0001) // =======================================================
(PID.TID 0000.0001) // =======================================================
(PID.TID 0000.0001) // Begin OBCS MONITOR field statistics
(PID.TID 0000.0001) // =======================================================
(PID.TID 0000.0001) %MON obc_N_vVel_max               =   1.3954027259657E-07
(PID.TID 0000.0001) %MON obc_N_vVel_min               =   1.3954027259657E-07
(PID.TID 0000.0001) %MON obc_N_vVel_mean              =   1.3954027259657E-07
(PID.TID 0000.0001) %MON obc_N_vVel_sd                =  -1.8932661725304E-28
(PID.TID 0000.0001) %MON obc_N_vVel_Int               =   9.2096579913735E+00
(PID.TID 0000.0001) // =======================================================
(PID.TID 0000.0001) // End OBCS MONITOR field statistics
(PID.TID 0000.0001) // =======================================================
 cg2d: Sum(rhs),rhsMax =   3.00957276885002E+00  4.53045510870170E+02
(PID.TID 0000.0001)      cg2d_init_res =   2.85385912440248E-06
(PID.TID 0000.0001)      cg2d_iters(min,last) =      -1      74
(PID.TID 0000.0001)      cg2d_last_res =   8.84743222992642E-12
(PID.TID 0000.0001) // =======================================================
(PID.TID 0000.0001) // Begin MONITOR dynamic field statistics
(PID.TID 0000.0001) // =======================================================
(PID.TID 0000.0001) %MON time_tsnumber                =                  1047
(PID.TID 0000.0001) %MON time_secondsf                =   1.0470000000000E+05
(PID.TID 0000.0001) %MON dynstat_eta_max              =   5.7983694534121E+00
(PID.TID 0000.0001) %MON dynstat_eta_min              =  -1.4172563668817E+01
(PID.TID 0000.0001) %MON dynstat_eta_mean             =  -2.5249508010456E+00
(PID.TID 0000.0001) %MON dynstat_eta_sd               =   4.9413303988786E+00
(PID.TID 0000.0001) %MON dynstat_eta_del2             =   1.9058509867603E-01
(PID.TID 0000.0001) %MON dynstat_uvel_max             =   5.0097117669985E-03
(PID.TID 0000.0001) %MON dynstat_uvel_min             =  -2.3559057315736E-02
(PID.TID 0000.0001) %MON dynstat_uvel_mean            =  -6.9295704056531E-11
(PID.TID 0000.0001) %MON dynstat_uvel_sd              =   6.3725872060640E-04
(PID.TID 0000.0001) %MON dynstat_uvel_del2            =   9.8321970129268E-07
(PID.TID 0000.0001) %MON dynstat_vvel_max             =   1.7288585341576E-02
(PID.TID 0000.0001) %MON dynstat_vvel_min             =  -6.3065980839481E-03
(PID.TID 0000.0001) %MON dynstat_vvel_mean            =   1.7140255864927E-07
(PID.TID 0000.0001) %MON dynstat_vvel_sd              =   3.2686519781884E-04
(PID.TID 0000.0001) %MON dynstat_vvel_del2            =   8.5770281337073E-07
(PID.TID 0000.0001) %MON dynstat_wvel_max             =   9.6126659275535E-04
(PID.TID 0000.0001) %MON dynstat_wvel_min             =  -1.0796371743525E-03
(PID.TID 0000.0001) %MON dynstat_wvel_mean            =   2.2120836284384E-10
(PID.TID 0000.0001) %MON dynstat_wvel_sd              =   1.6234116869320E-05
(PID.TID 0000.0001) %MON dynstat_wvel_del2            =   6.8591673627142E-08
(PID.TID 0000.0001) %MON dynstat_theta_max            =   1.2000000000000E+00
(PID.TID 0000.0001) %MON dynstat_theta_min            =  -1.0000000000000E+00
(PID.TID 0000.0001) %MON dynstat_theta_mean           =   5.6520001301300E-01
(PID.TID 0000.0001) %MON dynstat_theta_sd             =   8.4896989148796E-01
(PID.TID 0000.0001) %MON dynstat_theta_del2           =   2.4126713503550E-06
(PID.TID 0000.0001) %MON dynstat_salt_max             =   3.4700000000000E+01
(PID.TID 0000.0001) %MON dynstat_salt_min             =   3.4000000000000E+01
(PID.TID 0000.0001) %MON dynstat_salt_mean            =   3.4497993950474E+01
(PID.TID 0000.0001) %MON dynstat_salt_sd              =   2.7012410698359E-01
(PID.TID 0000.0001) %MON dynstat_salt_del2            =   9.5314274644267E-07
(PID.TID 0000.0001) %MON advcfl_uvel_max              =   2.3559057315736E-03
(PID.TID 0000.0001) %MON advcfl_vvel_max              =   1.7288585341576E-03
(PID.TID 0000.0001) %MON advcfl_wvel_max              =   5.3981858717623E-03
(PID.TID 0000.0001) %MON advcfl_W_hf_max              =   5.3981858717623E-03
(PID.TID 0000.0001) %MON pe_b_mean                    =  -6.8222448298591E-01
(PID.TID 0000.0001) %MON ke_max                       =   2.0224778580533E-04
(PID.TID 0000.0001) %MON ke_mean                      =   2.5265114800920E-07
(PID.TID 0000.0001) %MON ke_vol                       =   4.6183017627214E+12
(PID.TID 0000.0001) // =======================================================
(PID.TID 0000.0001) // End MONITOR dynamic field statistics
(PID.TID 0000.0001) // =======================================================
(PID.TID 0000.0001) // =======================================================
(PID.TID 0000.0001) // Begin OBCS MONITOR field statistics
(PID.TID 0000.0001) // =======================================================
(PID.TID 0000.0001) %MON obc_N_vVel_max               =   1.4291326759248E-07
(PID.TID 0000.0001) %MON obc_N_vVel_min               =   1.4291326759248E-07
(PID.TID 0000.0001) %MON obc_N_vVel_mean              =   1.4291326759248E-07
(PID.TID 0000.0001) %MON obc_N_vVel_sd                =  -2.3665827156630E-28
(PID.TID 0000.0001) %MON obc_N_vVel_Int               =   9.4322756611035E+00
(PID.TID 0000.0001) // =======================================================
(PID.TID 0000.0001) // End OBCS MONITOR field statistics
(PID.TID 0000.0001) // =======================================================
 cg2d: Sum(rhs),rhsMax =   3.00956690580303E+00  4.53045500355455E+02
(PID.TID 0000.0001)      cg2d_init_res =   2.85988856977184E-06
(PID.TID 0000.0001)      cg2d_iters(min,last) =      -1      74
(PID.TID 0000.0001)      cg2d_last_res =   8.86765263074400E-12
(PID.TID 0000.0001) // =======================================================
(PID.TID 0000.0001) // Begin MONITOR dynamic field statistics
(PID.TID 0000.0001) // =======================================================
(PID.TID 0000.0001) %MON time_tsnumber                =                  1048
(PID.TID 0000.0001) %MON time_secondsf                =   1.0480000000000E+05
(PID.TID 0000.0001) %MON dynstat_eta_max              =   5.7983719275433E+00
(PID.TID 0000.0001) %MON dynstat_eta_min              =  -1.4172552967016E+01
(PID.TID 0000.0001) %MON dynstat_eta_mean             =  -2.5249458235051E+00
(PID.TID 0000.0001) %MON dynstat_eta_sd               =   4.9413289621535E+00
(PID.TID 0000.0001) %MON dynstat_eta_del2             =   1.9058511349888E-01
(PID.TID 0000.0001) %MON dynstat_uvel_max             =   5.0223293955742E-03
(PID.TID 0000.0001) %MON dynstat_uvel_min             =  -2.3620533863600E-02
(PID.TID 0000.0001) %MON dynstat_uvel_mean            =   1.2058004758239E-11
(PID.TID 0000.0001) %MON dynstat_uvel_sd              =   6.3890807363455E-04
(PID.TID 0000.0001) %MON dynstat_uvel_del2            =   9.8562562105943E-07
(PID.TID 0000.0001) %MON dynstat_vvel_max             =   1.7325028916466E-02
(PID.TID 0000.0001) %MON dynstat_vvel_min             =  -6.3206814475816E-03
(PID.TID 0000.0001) %MON dynstat_vvel_mean            =   1.7210272017226E-07
(PID.TID 0000.0001) %MON dynstat_vvel_sd              =   3.2752946464987E-04
(PID.TID 0000.0001) %MON dynstat_vvel_del2            =   8.5947465567157E-07
(PID.TID 0000.0001) %MON dynstat_wvel_max             =   9.6364479538667E-04
(PID.TID 0000.0001) %MON dynstat_wvel_min             =  -1.0829561391356E-03
(PID.TID 0000.0001) %MON dynstat_wvel_mean            =   2.0904553294780E-10
(PID.TID 0000.0001) %MON dynstat_wvel_sd              =   1.6237379593775E-05
(PID.TID 0000.0001) %MON dynstat_wvel_del2            =   6.8558580859225E-08
(PID.TID 0000.0001) %MON dynstat_theta_max            =   1.2000000000000E+00
(PID.TID 0000.0001) %MON dynstat_theta_min            =  -1.0000000000000E+00
(PID.TID 0000.0001) %MON dynstat_theta_mean           =   5.6519944117244E-01
(PID.TID 0000.0001) %MON dynstat_theta_sd             =   8.4896964773970E-01
(PID.TID 0000.0001) %MON dynstat_theta_del2           =   2.4178829514483E-06
(PID.TID 0000.0001) %MON dynstat_salt_max             =   3.4700000000000E+01
(PID.TID 0000.0001) %MON dynstat_salt_min             =   3.4000000000000E+01
(PID.TID 0000.0001) %MON dynstat_salt_mean            =   3.4497993722303E+01
(PID.TID 0000.0001) %MON dynstat_salt_sd              =   2.7012401555577E-01
(PID.TID 0000.0001) %MON dynstat_salt_del2            =   9.5520190674166E-07
(PID.TID 0000.0001) %MON advcfl_uvel_max              =   2.3620533863600E-03
(PID.TID 0000.0001) %MON advcfl_vvel_max              =   1.7325028916466E-03
(PID.TID 0000.0001) %MON advcfl_wvel_max              =   5.4147806956782E-03
(PID.TID 0000.0001) %MON advcfl_W_hf_max              =   5.4147806956782E-03
(PID.TID 0000.0001) %MON pe_b_mean                    =  -6.8222300286941E-01
(PID.TID 0000.0001) %MON ke_max                       =   2.0344270794658E-04
(PID.TID 0000.0001) %MON ke_mean                      =   2.5390112889285E-07
(PID.TID 0000.0001) %MON ke_vol                       =   4.6183017922418E+12
(PID.TID 0000.0001) // =======================================================
(PID.TID 0000.0001) // End MONITOR dynamic field statistics
(PID.TID 0000.0001) // =======================================================
(PID.TID 0000.0001) // =======================================================
(PID.TID 0000.0001) // Begin OBCS MONITOR field statistics
(PID.TID 0000.0001) // =======================================================
(PID.TID 0000.0001) %MON obc_N_vVel_max               =   1.4459977322059E-07
(PID.TID 0000.0001) %MON obc_N_vVel_min               =   1.4459977322059E-07
(PID.TID 0000.0001) %MON obc_N_vVel_mean              =   1.4459977322059E-07
(PID.TID 0000.0001) %MON obc_N_vVel_sd                =  -1.0949389364468E-27
(PID.TID 0000.0001) %MON obc_N_vVel_Int               =   9.5435850325591E+00
(PID.TID 0000.0001) // =======================================================
(PID.TID 0000.0001) // End OBCS MONITOR field statistics
(PID.TID 0000.0001) // =======================================================
 cg2d: Sum(rhs),rhsMax =   3.00956103674025E+00  4.53045489006119E+02
(PID.TID 0000.0001)      cg2d_init_res =   2.86598279917504E-06
(PID.TID 0000.0001)      cg2d_iters(min,last) =      -1      74
(PID.TID 0000.0001)      cg2d_last_res =   8.88831974792651E-12
(PID.TID 0000.0001) // =======================================================
(PID.TID 0000.0001) // Begin MONITOR dynamic field statistics
(PID.TID 0000.0001) // =======================================================
(PID.TID 0000.0001) %MON time_tsnumber                =                  1049
(PID.TID 0000.0001) %MON time_secondsf                =   1.0490000000000E+05
(PID.TID 0000.0001) %MON dynstat_eta_max              =   5.7983744045663E+00
(PID.TID 0000.0001) %MON dynstat_eta_min              =  -1.4172542239533E+01
(PID.TID 0000.0001) %MON dynstat_eta_mean             =  -2.5249408362662E+00
(PID.TID 0000.0001) %MON dynstat_eta_sd               =   4.9413275206637E+00
(PID.TID 0000.0001) %MON dynstat_eta_del2             =   1.9058512833012E-01
(PID.TID 0000.0001) %MON dynstat_uvel_max             =   5.0349765501085E-03
(PID.TID 0000.0001) %MON dynstat_uvel_min             =  -2.3682104179738E-02
(PID.TID 0000.0001) %MON dynstat_uvel_mean            =   9.4476031318015E-11
(PID.TID 0000.0001) %MON dynstat_uvel_sd              =   6.4056077111201E-04
(PID.TID 0000.0001) %MON dynstat_uvel_del2            =   9.8803755888700E-07
(PID.TID 0000.0001) %MON dynstat_vvel_max             =   1.7361506434430E-02
(PID.TID 0000.0001) %MON dynstat_vvel_min             =  -6.3347886737555E-03
(PID.TID 0000.0001) %MON dynstat_vvel_mean            =   1.7104866811484E-07
(PID.TID 0000.0001) %MON dynstat_vvel_sd              =   3.2819475051043E-04
(PID.TID 0000.0001) %MON dynstat_vvel_del2            =   8.6125225980776E-07
(PID.TID 0000.0001) %MON dynstat_wvel_max             =   9.6602677807296E-04
(PID.TID 0000.0001) %MON dynstat_wvel_min             =  -1.0862831482831E-03
(PID.TID 0000.0001) %MON dynstat_wvel_mean            =   1.9734537748726E-10
(PID.TID 0000.0001) %MON dynstat_wvel_sd              =   1.6239842513168E-05
(PID.TID 0000.0001) %MON dynstat_wvel_del2            =   6.8521302203161E-08
(PID.TID 0000.0001) %MON dynstat_theta_max            =   1.2000000000000E+00
(PID.TID 0000.0001) %MON dynstat_theta_min            =  -1.0000000000000E+00
(PID.TID 0000.0001) %MON dynstat_theta_mean           =   5.6519886827174E-01
(PID.TID 0000.0001) %MON dynstat_theta_sd             =   8.4896940347006E-01
(PID.TID 0000.0001) %MON dynstat_theta_del2           =   2.4231003148676E-06
(PID.TID 0000.0001) %MON dynstat_salt_max             =   3.4700000000000E+01
(PID.TID 0000.0001) %MON dynstat_salt_min             =   3.4000000000000E+01
(PID.TID 0000.0001) %MON dynstat_salt_mean            =   3.4497993493707E+01
(PID.TID 0000.0001) %MON dynstat_salt_sd              =   2.7012392392560E-01
(PID.TID 0000.0001) %MON dynstat_salt_del2            =   9.5726393385430E-07
(PID.TID 0000.0001) %MON advcfl_uvel_max              =   2.3682104179738E-03
(PID.TID 0000.0001) %MON advcfl_vvel_max              =   1.7361506434430E-03
(PID.TID 0000.0001) %MON advcfl_wvel_max              =   5.4314157414156E-03
(PID.TID 0000.0001) %MON advcfl_W_hf_max              =   5.4314157414156E-03
(PID.TID 0000.0001) %MON pe_b_mean                    =  -6.8222151943262E-01
(PID.TID 0000.0001) %MON ke_max                       =   2.0464369763810E-04
(PID.TID 0000.0001) %MON ke_mean                      =   2.5515665641727E-07
(PID.TID 0000.0001) %MON ke_vol                       =   4.6183018218084E+12
(PID.TID 0000.0001) // =======================================================
(PID.TID 0000.0001) // End MONITOR dynamic field statistics
(PID.TID 0000.0001) // =======================================================
(PID.TID 0000.0001) // =======================================================
(PID.TID 0000.0001) // Begin OBCS MONITOR field statistics
(PID.TID 0000.0001) // =======================================================
(PID.TID 0000.0001) %MON obc_N_vVel_max               =   1.4457047856086E-07
(PID.TID 0000.0001) %MON obc_N_vVel_min               =   1.4457047856086E-07
(PID.TID 0000.0001) %MON obc_N_vVel_mean              =   1.4457047856086E-07
(PID.TID 0000.0001) %MON obc_N_vVel_sd                =   1.3873790429220E-14
(PID.TID 0000.0001) %MON obc_N_vVel_Int               =   9.5416515850168E+00
(PID.TID 0000.0001) // =======================================================
(PID.TID 0000.0001) // End OBCS MONITOR field statistics
(PID.TID 0000.0001) // =======================================================
 cg2d: Sum(rhs),rhsMax =   3.00955515940076E+00  4.53045476816346E+02
(PID.TID 0000.0001)      cg2d_init_res =   2.87219167407561E-06
(PID.TID 0000.0001)      cg2d_iters(min,last) =      -1      74
(PID.TID 0000.0001)      cg2d_last_res =   8.90943619607088E-12
(PID.TID 0000.0001) // =======================================================
(PID.TID 0000.0001) // Begin MONITOR dynamic field statistics
(PID.TID 0000.0001) // =======================================================
(PID.TID 0000.0001) %MON time_tsnumber                =                  1050
(PID.TID 0000.0001) %MON time_secondsf                =   1.0500000000000E+05
(PID.TID 0000.0001) %MON dynstat_eta_max              =   5.7983768875276E+00
(PID.TID 0000.0001) %MON dynstat_eta_min              =  -1.4172531482998E+01
(PID.TID 0000.0001) %MON dynstat_eta_mean             =  -2.5249358373996E+00
(PID.TID 0000.0001) %MON dynstat_eta_sd               =   4.9413260737720E+00
(PID.TID 0000.0001) %MON dynstat_eta_del2             =   1.9058514316827E-01
(PID.TID 0000.0001) %MON dynstat_uvel_max             =   5.0476532900543E-03
(PID.TID 0000.0001) %MON dynstat_uvel_min             =  -2.3743768105829E-02
(PID.TID 0000.0001) %MON dynstat_uvel_mean            =   1.7721157565657E-10
(PID.TID 0000.0001) %MON dynstat_uvel_sd              =   6.4221681854932E-04
(PID.TID 0000.0001) %MON dynstat_uvel_del2            =   9.9045552218795E-07
(PID.TID 0000.0001) %MON dynstat_vvel_max             =   1.7398017795902E-02
(PID.TID 0000.0001) %MON dynstat_vvel_min             =  -6.3489197654887E-03
(PID.TID 0000.0001) %MON dynstat_vvel_mean            =   1.6824070494706E-07
(PID.TID 0000.0001) %MON dynstat_vvel_sd              =   3.2886150103148E-04
(PID.TID 0000.0001) %MON dynstat_vvel_del2            =   8.6303863570493E-07
(PID.TID 0000.0001) %MON dynstat_wvel_max             =   9.6841253969920E-04
(PID.TID 0000.0001) %MON dynstat_wvel_min             =  -1.0896182013262E-03
(PID.TID 0000.0001) %MON dynstat_wvel_mean            =   1.8624228529749E-10
(PID.TID 0000.0001) %MON dynstat_wvel_sd              =   1.6243002608287E-05
(PID.TID 0000.0001) %MON dynstat_wvel_del2            =   6.8488356241794E-08
(PID.TID 0000.0001) %MON dynstat_theta_max            =   1.2000000000000E+00
(PID.TID 0000.0001) %MON dynstat_theta_min            =  -1.0000000000000E+00
(PID.TID 0000.0001) %MON dynstat_theta_mean           =   5.6519829430893E-01
(PID.TID 0000.0001) %MON dynstat_theta_sd             =   8.4896915867987E-01
(PID.TID 0000.0001) %MON dynstat_theta_del2           =   2.4283199592695E-06
(PID.TID 0000.0001) %MON dynstat_salt_max             =   3.4700000000000E+01
(PID.TID 0000.0001) %MON dynstat_salt_min             =   3.4000000000000E+01
(PID.TID 0000.0001) %MON dynstat_salt_mean            =   3.4497993264685E+01
(PID.TID 0000.0001) %MON dynstat_salt_sd              =   2.7012383209318E-01
(PID.TID 0000.0001) %MON dynstat_salt_del2            =   9.5932795442149E-07
(PID.TID 0000.0001) %MON advcfl_uvel_max              =   2.3743768105829E-03
(PID.TID 0000.0001) %MON advcfl_vvel_max              =   1.7398017795902E-03
(PID.TID 0000.0001) %MON advcfl_wvel_max              =   5.4480910066309E-03
(PID.TID 0000.0001) %MON advcfl_W_hf_max              =   5.4480910066309E-03
(PID.TID 0000.0001) %MON pe_b_mean                    =  -6.8222003229414E-01
(PID.TID 0000.0001) %MON ke_max                       =   2.0585078005801E-04
(PID.TID 0000.0001) %MON ke_mean                      =   2.5641789891055E-07
(PID.TID 0000.0001) %MON ke_vol                       =   4.6183018514326E+12
(PID.TID 0000.0001) // =======================================================
(PID.TID 0000.0001) // End MONITOR dynamic field statistics
(PID.TID 0000.0001) // =======================================================
(PID.TID 0000.0001) // =======================================================
(PID.TID 0000.0001) // Begin OBCS MONITOR field statistics
(PID.TID 0000.0001) // =======================================================
(PID.TID 0000.0001) %MON obc_N_vVel_max               =   1.4281442100937E-07
(PID.TID 0000.0001) %MON obc_N_vVel_min               =   1.4281442100937E-07
(PID.TID 0000.0001) %MON obc_N_vVel_mean              =   1.4281442100937E-07
(PID.TID 0000.0001) %MON obc_N_vVel_sd                =   9.3995968735235E-15
(PID.TID 0000.0001) %MON obc_N_vVel_Int               =   9.4257517866184E+00
(PID.TID 0000.0001) // =======================================================
(PID.TID 0000.0001) // End OBCS MONITOR field statistics
(PID.TID 0000.0001) // =======================================================
 cg2d: Sum(rhs),rhsMax =   3.00954927148039E+00  4.53045463788405E+02
(PID.TID 0000.0001)      cg2d_init_res =   2.87857059048597E-06
(PID.TID 0000.0001)      cg2d_iters(min,last) =      -1      74
(PID.TID 0000.0001)      cg2d_last_res =   8.93099403606189E-12
(PID.TID 0000.0001) // =======================================================
(PID.TID 0000.0001) // Begin MONITOR dynamic field statistics
(PID.TID 0000.0001) // =======================================================
(PID.TID 0000.0001) %MON time_tsnumber                =                  1051
(PID.TID 0000.0001) %MON time_secondsf                =   1.0510000000000E+05
(PID.TID 0000.0001) %MON dynstat_eta_max              =   5.7983793794337E+00
(PID.TID 0000.0001) %MON dynstat_eta_min              =  -1.4172520694064E+01
(PID.TID 0000.0001) %MON dynstat_eta_mean             =  -2.5249308249850E+00
(PID.TID 0000.0001) %MON dynstat_eta_sd               =   4.9413246208649E+00
(PID.TID 0000.0001) %MON dynstat_eta_del2             =   1.9058515801207E-01
(PID.TID 0000.0001) %MON dynstat_uvel_max             =   5.0603596743439E-03
(PID.TID 0000.0001) %MON dynstat_uvel_min             =  -2.3805525483034E-02
(PID.TID 0000.0001) %MON dynstat_uvel_mean            =   2.5950789857722E-10
(PID.TID 0000.0001) %MON dynstat_uvel_sd              =   6.4387622168292E-04
(PID.TID 0000.0001) %MON dynstat_uvel_del2            =   9.9287951978791E-07
(PID.TID 0000.0001) %MON dynstat_vvel_max             =   1.7434562903479E-02
(PID.TID 0000.0001) %MON dynstat_vvel_min             =  -6.3630747236472E-03
(PID.TID 0000.0001) %MON dynstat_vvel_mean            =   1.6369828538361E-07
(PID.TID 0000.0001) %MON dynstat_vvel_sd              =   3.2953014916167E-04
(PID.TID 0000.0001) %MON dynstat_vvel_del2            =   8.6483660350282E-07
(PID.TID 0000.0001) %MON dynstat_wvel_max             =   9.7080207915091E-04
(PID.TID 0000.0001) %MON dynstat_wvel_min             =  -1.0929612978566E-03
(PID.TID 0000.0001) %MON dynstat_wvel_mean            =   1.7586527186314E-10
(PID.TID 0000.0001) %MON dynstat_wvel_sd              =   1.6248360741506E-05
(PID.TID 0000.0001) %MON dynstat_wvel_del2            =   6.8468326642350E-08
(PID.TID 0000.0001) %MON dynstat_theta_max            =   1.2000000000000E+00
(PID.TID 0000.0001) %MON dynstat_theta_min            =  -1.0000000000000E+00
(PID.TID 0000.0001) %MON dynstat_theta_mean           =   5.6519771928193E-01
(PID.TID 0000.0001) %MON dynstat_theta_sd             =   8.4896891336828E-01
(PID.TID 0000.0001) %MON dynstat_theta_del2           =   2.4335386606561E-06
(PID.TID 0000.0001) %MON dynstat_salt_max             =   3.4700000000000E+01
(PID.TID 0000.0001) %MON dynstat_salt_min             =   3.4000000000000E+01
(PID.TID 0000.0001) %MON dynstat_salt_mean            =   3.4497993035236E+01
(PID.TID 0000.0001) %MON dynstat_salt_sd              =   2.7012374005836E-01
(PID.TID 0000.0001) %MON dynstat_salt_del2            =   9.6139316321344E-07
(PID.TID 0000.0001) %MON advcfl_uvel_max              =   2.3805525483034E-03
(PID.TID 0000.0001) %MON advcfl_vvel_max              =   1.7434562903479E-03
(PID.TID 0000.0001) %MON advcfl_wvel_max              =   5.4648064892830E-03
(PID.TID 0000.0001) %MON advcfl_W_hf_max              =   5.4648064892830E-03
(PID.TID 0000.0001) %MON pe_b_mean                    =  -6.8221854107802E-01
(PID.TID 0000.0001) %MON ke_max                       =   2.0706398047410E-04
(PID.TID 0000.0001) %MON ke_mean                      =   2.5768502193945E-07
(PID.TID 0000.0001) %MON ke_vol                       =   4.6183018811258E+12
(PID.TID 0000.0001) // =======================================================
(PID.TID 0000.0001) // End MONITOR dynamic field statistics
(PID.TID 0000.0001) // =======================================================
(PID.TID 0000.0001) // =======================================================
(PID.TID 0000.0001) // Begin OBCS MONITOR field statistics
(PID.TID 0000.0001) // =======================================================
(PID.TID 0000.0001) %MON obc_N_vVel_max               =   1.3933937628485E-07
(PID.TID 0000.0001) %MON obc_N_vVel_min               =   1.3933937628485E-07
(PID.TID 0000.0001) %MON obc_N_vVel_mean              =   1.3933937628485E-07
(PID.TID 0000.0001) %MON obc_N_vVel_sd                =   2.0715702557245E-14
(PID.TID 0000.0001) %MON obc_N_vVel_Int               =   9.1963988348001E+00
(PID.TID 0000.0001) // =======================================================
(PID.TID 0000.0001) // End OBCS MONITOR field statistics
(PID.TID 0000.0001) // =======================================================
 cg2d: Sum(rhs),rhsMax =   3.00954337066056E+00  4.53045449932161E+02
(PID.TID 0000.0001)      cg2d_init_res =   2.88517492142936E-06
(PID.TID 0000.0001)      cg2d_iters(min,last) =      -1      74
(PID.TID 0000.0001)      cg2d_last_res =   8.95302937826317E-12
(PID.TID 0000.0001) // =======================================================
(PID.TID 0000.0001) // Begin MONITOR dynamic field statistics
(PID.TID 0000.0001) // =======================================================
(PID.TID 0000.0001) %MON time_tsnumber                =                  1052
(PID.TID 0000.0001) %MON time_secondsf                =   1.0520000000000E+05
(PID.TID 0000.0001) %MON dynstat_eta_max              =   5.7983818832247E+00
(PID.TID 0000.0001) %MON dynstat_eta_min              =  -1.4172509869476E+01
(PID.TID 0000.0001) %MON dynstat_eta_mean             =  -2.5249257971320E+00
(PID.TID 0000.0001) %MON dynstat_eta_sd               =   4.9413231613603E+00
(PID.TID 0000.0001) %MON dynstat_eta_del2             =   1.9058517286047E-01
(PID.TID 0000.0001) %MON dynstat_uvel_max             =   5.0730957613014E-03
(PID.TID 0000.0001) %MON dynstat_uvel_min             =  -2.3867376151903E-02
(PID.TID 0000.0001) %MON dynstat_uvel_mean            =   3.4060368343714E-10
(PID.TID 0000.0001) %MON dynstat_uvel_sd              =   6.4553898650448E-04
(PID.TID 0000.0001) %MON dynstat_uvel_del2            =   9.9530956191863E-07
(PID.TID 0000.0001) %MON dynstat_vvel_max             =   1.7471141661971E-02
(PID.TID 0000.0001) %MON dynstat_vvel_min             =  -6.3772535468667E-03
(PID.TID 0000.0001) %MON dynstat_vvel_mean            =   1.5746002000784E-07
(PID.TID 0000.0001) %MON dynstat_vvel_sd              =   3.3020109420649E-04
(PID.TID 0000.0001) %MON dynstat_vvel_del2            =   8.6664863735787E-07
(PID.TID 0000.0001) %MON dynstat_wvel_max             =   9.7319539526407E-04
(PID.TID 0000.0001) %MON dynstat_wvel_min             =  -1.0963124373387E-03
(PID.TID 0000.0001) %MON dynstat_wvel_mean            =   1.6633748753727E-10
(PID.TID 0000.0001) %MON dynstat_wvel_sd              =   1.6257336635108E-05
(PID.TID 0000.0001) %MON dynstat_wvel_del2            =   6.8469293274616E-08
(PID.TID 0000.0001) %MON dynstat_theta_max            =   1.2000000000000E+00
(PID.TID 0000.0001) %MON dynstat_theta_min            =  -1.0000000000000E+00
(PID.TID 0000.0001) %MON dynstat_theta_mean           =   5.6519714318853E-01
(PID.TID 0000.0001) %MON dynstat_theta_sd             =   8.4896866753177E-01
(PID.TID 0000.0001) %MON dynstat_theta_del2           =   2.4387522870398E-06
(PID.TID 0000.0001) %MON dynstat_salt_max             =   3.4700000000000E+01
(PID.TID 0000.0001) %MON dynstat_salt_min             =   3.4000000000000E+01
(PID.TID 0000.0001) %MON dynstat_salt_mean            =   3.4497992805360E+01
(PID.TID 0000.0001) %MON dynstat_salt_sd              =   2.7012364782004E-01
(PID.TID 0000.0001) %MON dynstat_salt_del2            =   9.6345885856580E-07
(PID.TID 0000.0001) %MON advcfl_uvel_max              =   2.3867376151903E-03
(PID.TID 0000.0001) %MON advcfl_vvel_max              =   1.7471141661971E-03
(PID.TID 0000.0001) %MON advcfl_wvel_max              =   5.4815621866935E-03
(PID.TID 0000.0001) %MON advcfl_W_hf_max              =   5.4815621866935E-03
(PID.TID 0000.0001) %MON pe_b_mean                    =  -6.8221704541808E-01
(PID.TID 0000.0001) %MON ke_max                       =   2.0828332424267E-04
(PID.TID 0000.0001) %MON ke_mean                      =   2.5895818137311E-07
(PID.TID 0000.0001) %MON ke_vol                       =   4.6183019108996E+12
(PID.TID 0000.0001) // =======================================================
(PID.TID 0000.0001) // End MONITOR dynamic field statistics
(PID.TID 0000.0001) // =======================================================
(PID.TID 0000.0001) // =======================================================
(PID.TID 0000.0001) // Begin OBCS MONITOR field statistics
(PID.TID 0000.0001) // =======================================================
(PID.TID 0000.0001) %MON obc_N_vVel_max               =   1.3417192050222E-07
(PID.TID 0000.0001) %MON obc_N_vVel_min               =   1.3417192050222E-07
(PID.TID 0000.0001) %MON obc_N_vVel_mean              =   1.3417192050222E-07
(PID.TID 0000.0001) %MON obc_N_vVel_sd                =  -5.8060162624266E-28
(PID.TID 0000.0001) %MON obc_N_vVel_Int               =   8.8553467531467E+00
(PID.TID 0000.0001) // =======================================================
(PID.TID 0000.0001) // End OBCS MONITOR field statistics
(PID.TID 0000.0001) // =======================================================
 cg2d: Sum(rhs),rhsMax =   3.00953745463060E+00  4.53045435265448E+02
(PID.TID 0000.0001)      cg2d_init_res =   2.89205447002246E-06
(PID.TID 0000.0001)      cg2d_iters(min,last) =      -1      74
(PID.TID 0000.0001)      cg2d_last_res =   8.97554288715904E-12
(PID.TID 0000.0001) // =======================================================
(PID.TID 0000.0001) // Begin MONITOR dynamic field statistics
(PID.TID 0000.0001) // =======================================================
(PID.TID 0000.0001) %MON time_tsnumber                =                  1053
(PID.TID 0000.0001) %MON time_secondsf                =   1.0530000000000E+05
(PID.TID 0000.0001) %MON dynstat_eta_max              =   5.7983844017255E+00
(PID.TID 0000.0001) %MON dynstat_eta_min              =  -1.4172499006092E+01
(PID.TID 0000.0001) %MON dynstat_eta_mean             =  -2.5249207520015E+00
(PID.TID 0000.0001) %MON dynstat_eta_sd               =   4.9413216947148E+00
(PID.TID 0000.0001) %MON dynstat_eta_del2             =   1.9058518771277E-01
(PID.TID 0000.0001) %MON dynstat_uvel_max             =   5.0858616072578E-03
(PID.TID 0000.0001) %MON dynstat_uvel_min             =  -2.3929319951353E-02
(PID.TID 0000.0001) %MON dynstat_uvel_mean            =   4.1974102509396E-10
(PID.TID 0000.0001) %MON dynstat_uvel_sd              =   6.4720511924168E-04
(PID.TID 0000.0001) %MON dynstat_uvel_del2            =   9.9774566031607E-07
(PID.TID 0000.0001) %MON dynstat_vvel_max             =   1.7507753978403E-02
(PID.TID 0000.0001) %MON dynstat_vvel_min             =  -6.3914562311371E-03
(PID.TID 0000.0001) %MON dynstat_vvel_mean            =   1.4958346415342E-07
(PID.TID 0000.0001) %MON dynstat_vvel_sd              =   3.3087468212904E-04
(PID.TID 0000.0001) %MON dynstat_vvel_del2            =   8.6847672449147E-07
(PID.TID 0000.0001) %MON dynstat_wvel_max             =   9.7559248686481E-04
(PID.TID 0000.0001) %MON dynstat_wvel_min             =  -1.0996716175703E-03
(PID.TID 0000.0001) %MON dynstat_wvel_mean            =   1.5777352287595E-10
(PID.TID 0000.0001) %MON dynstat_wvel_sd              =   1.6271186153851E-05
(PID.TID 0000.0001) %MON dynstat_wvel_del2            =   6.8498278659215E-08
(PID.TID 0000.0001) %MON dynstat_theta_max            =   1.2000000000000E+00
(PID.TID 0000.0001) %MON dynstat_theta_min            =  -1.0000000000000E+00
(PID.TID 0000.0001) %MON dynstat_theta_mean           =   5.6519656602646E-01
(PID.TID 0000.0001) %MON dynstat_theta_sd             =   8.4896842116770E-01
(PID.TID 0000.0001) %MON dynstat_theta_del2           =   2.4439594921393E-06
(PID.TID 0000.0001) %MON dynstat_salt_max             =   3.4700000000000E+01
(PID.TID 0000.0001) %MON dynstat_salt_min             =   3.4000000000000E+01
(PID.TID 0000.0001) %MON dynstat_salt_mean            =   3.4497992575055E+01
(PID.TID 0000.0001) %MON dynstat_salt_sd              =   2.7012355537678E-01
(PID.TID 0000.0001) %MON dynstat_salt_del2            =   9.6552379955394E-07
(PID.TID 0000.0001) %MON advcfl_uvel_max              =   2.3929319951353E-03
(PID.TID 0000.0001) %MON advcfl_vvel_max              =   1.7507753978403E-03
(PID.TID 0000.0001) %MON advcfl_wvel_max              =   5.4983580878514E-03
(PID.TID 0000.0001) %MON advcfl_W_hf_max              =   5.4983580878514E-03
(PID.TID 0000.0001) %MON pe_b_mean                    =  -6.8221554496201E-01
(PID.TID 0000.0001) %MON ke_max                       =   2.0950883678057E-04
(PID.TID 0000.0001) %MON ke_mean                      =   2.6023751675000E-07
(PID.TID 0000.0001) %MON ke_vol                       =   4.6183019407650E+12
(PID.TID 0000.0001) // =======================================================
(PID.TID 0000.0001) // End MONITOR dynamic field statistics
(PID.TID 0000.0001) // =======================================================
(PID.TID 0000.0001) // =======================================================
(PID.TID 0000.0001) // Begin OBCS MONITOR field statistics
(PID.TID 0000.0001) // =======================================================
(PID.TID 0000.0001) %MON obc_N_vVel_max               =   1.2735743203680E-07
(PID.TID 0000.0001) %MON obc_N_vVel_min               =   1.2735743203680E-07
(PID.TID 0000.0001) %MON obc_N_vVel_mean              =   1.2735743203680E-07
(PID.TID 0000.0001) %MON obc_N_vVel_sd                =  -6.7842037849007E-28
(PID.TID 0000.0001) %MON obc_N_vVel_Int               =   8.4055905144289E+00
(PID.TID 0000.0001) // =======================================================
(PID.TID 0000.0001) // End OBCS MONITOR field statistics
(PID.TID 0000.0001) // =======================================================
 cg2d: Sum(rhs),rhsMax =   3.00953152111223E+00  4.53045419813894E+02
(PID.TID 0000.0001)      cg2d_init_res =   2.89924879766514E-06
(PID.TID 0000.0001)      cg2d_iters(min,last) =      -1      74
(PID.TID 0000.0001)      cg2d_last_res =   8.99853138767937E-12
(PID.TID 0000.0001) // =======================================================
(PID.TID 0000.0001) // Begin MONITOR dynamic field statistics
(PID.TID 0000.0001) // =======================================================
(PID.TID 0000.0001) %MON time_tsnumber                =                  1054
(PID.TID 0000.0001) %MON time_secondsf                =   1.0540000000000E+05
(PID.TID 0000.0001) %MON dynstat_eta_max              =   5.7983869376227E+00
(PID.TID 0000.0001) %MON dynstat_eta_min              =  -1.4172488100930E+01
(PID.TID 0000.0001) %MON dynstat_eta_mean             =  -2.5249156878249E+00
(PID.TID 0000.0001) %MON dynstat_eta_sd               =   4.9413202204289E+00
(PID.TID 0000.0001) %MON dynstat_eta_del2             =   1.9058520256851E-01
(PID.TID 0000.0001) %MON dynstat_uvel_max             =   5.0986572682854E-03
(PID.TID 0000.0001) %MON dynstat_uvel_min             =  -2.3991356725069E-02
(PID.TID 0000.0001) %MON dynstat_uvel_mean            =   4.9616769774796E-10
(PID.TID 0000.0001) %MON dynstat_uvel_sd              =   6.4887462660544E-04
(PID.TID 0000.0001) %MON dynstat_uvel_del2            =   1.0001878281225E-06
(PID.TID 0000.0001) %MON dynstat_vvel_max             =   1.7544399762307E-02
(PID.TID 0000.0001) %MON dynstat_vvel_min             =  -6.4056827708461E-03
(PID.TID 0000.0001) %MON dynstat_vvel_mean            =   1.4014478495219E-07
(PID.TID 0000.0001) %MON dynstat_vvel_sd              =   3.3155118971875E-04
(PID.TID 0000.0001) %MON dynstat_vvel_del2            =   8.7032225576594E-07
(PID.TID 0000.0001) %MON dynstat_wvel_max             =   9.7799335277230E-04
(PID.TID 0000.0001) %MON dynstat_wvel_min             =  -1.1030388363668E-03
(PID.TID 0000.0001) %MON dynstat_wvel_mean            =   1.5028101967754E-10
(PID.TID 0000.0001) %MON dynstat_wvel_sd              =   1.6290926837576E-05
(PID.TID 0000.0001) %MON dynstat_wvel_del2            =   6.8560757160143E-08
(PID.TID 0000.0001) %MON dynstat_theta_max            =   1.2000000000000E+00
(PID.TID 0000.0001) %MON dynstat_theta_min            =  -1.0000000000000E+00
(PID.TID 0000.0001) %MON dynstat_theta_mean           =   5.6519598779330E-01
(PID.TID 0000.0001) %MON dynstat_theta_sd             =   8.4896817427241E-01
(PID.TID 0000.0001) %MON dynstat_theta_del2           =   2.4491594963056E-06
(PID.TID 0000.0001) %MON dynstat_salt_max             =   3.4700000000000E+01
(PID.TID 0000.0001) %MON dynstat_salt_min             =   3.4000000000000E+01
(PID.TID 0000.0001) %MON dynstat_salt_mean            =   3.4497992344321E+01
(PID.TID 0000.0001) %MON dynstat_salt_sd              =   2.7012346272753E-01
(PID.TID 0000.0001) %MON dynstat_salt_del2            =   9.6758827987965E-07
(PID.TID 0000.0001) %MON advcfl_uvel_max              =   2.3991356725069E-03
(PID.TID 0000.0001) %MON advcfl_vvel_max              =   1.7544399762307E-03
(PID.TID 0000.0001) %MON advcfl_wvel_max              =   5.5151941818342E-03
(PID.TID 0000.0001) %MON advcfl_W_hf_max              =   5.5151941818342E-03
(PID.TID 0000.0001) %MON pe_b_mean                    =  -6.8221403937512E-01
(PID.TID 0000.0001) %MON ke_max                       =   2.1074054374959E-04
(PID.TID 0000.0001) %MON ke_mean                      =   2.6152314601689E-07
(PID.TID 0000.0001) %MON ke_vol                       =   4.6183019707331E+12
(PID.TID 0000.0001) // =======================================================
(PID.TID 0000.0001) // End MONITOR dynamic field statistics
(PID.TID 0000.0001) // =======================================================
(PID.TID 0000.0001) // =======================================================
(PID.TID 0000.0001) // Begin OBCS MONITOR field statistics
(PID.TID 0000.0001) // =======================================================
(PID.TID 0000.0001) %MON obc_N_vVel_max               =   1.1895973772484E-07
(PID.TID 0000.0001) %MON obc_N_vVel_min               =   1.1895973772484E-07
(PID.TID 0000.0001) %MON obc_N_vVel_mean              =   1.1895973772484E-07
(PID.TID 0000.0001) %MON obc_N_vVel_sd                =  -1.1517369216227E-27
(PID.TID 0000.0001) %MON obc_N_vVel_Int               =   7.8513426898396E+00
(PID.TID 0000.0001) // =======================================================
(PID.TID 0000.0001) // End OBCS MONITOR field statistics
(PID.TID 0000.0001) // =======================================================
 cg2d: Sum(rhs),rhsMax =   3.00952556788377E+00  4.53045403610723E+02
(PID.TID 0000.0001)      cg2d_init_res =   2.90678168950521E-06
(PID.TID 0000.0001)      cg2d_iters(min,last) =      -1      74
(PID.TID 0000.0001)      cg2d_last_res =   9.02198625774051E-12
(PID.TID 0000.0001) // =======================================================
(PID.TID 0000.0001) // Begin MONITOR dynamic field statistics
(PID.TID 0000.0001) // =======================================================
(PID.TID 0000.0001) %MON time_tsnumber                =                  1055
(PID.TID 0000.0001) %MON time_secondsf                =   1.0550000000000E+05
(PID.TID 0000.0001) %MON dynstat_eta_max              =   5.7983894934392E+00
(PID.TID 0000.0001) %MON dynstat_eta_min              =  -1.4172477151186E+01
(PID.TID 0000.0001) %MON dynstat_eta_mean             =  -2.5249106029235E+00
(PID.TID 0000.0001) %MON dynstat_eta_sd               =   4.9413187380537E+00
(PID.TID 0000.0001) %MON dynstat_eta_del2             =   1.9058521742757E-01
(PID.TID 0000.0001) %MON dynstat_uvel_max             =   5.1114828005119E-03
(PID.TID 0000.0001) %MON dynstat_uvel_min             =  -2.4053486309728E-02
(PID.TID 0000.0001) %MON dynstat_uvel_mean            =   5.6917430941630E-10
(PID.TID 0000.0001) %MON dynstat_uvel_sd              =   6.5054751550602E-04
(PID.TID 0000.0001) %MON dynstat_uvel_del2            =   1.0026360800193E-06
(PID.TID 0000.0001) %MON dynstat_vvel_max             =   1.7581078925292E-02
(PID.TID 0000.0001) %MON dynstat_vvel_min             =  -6.4199331581758E-03
(PID.TID 0000.0001) %MON dynstat_vvel_mean            =   1.2923797850112E-07
(PID.TID 0000.0001) %MON dynstat_vvel_sd              =   3.3223080942351E-04
(PID.TID 0000.0001) %MON dynstat_vvel_del2            =   8.7218593882713E-07
(PID.TID 0000.0001) %MON dynstat_wvel_max             =   9.8039799178186E-04
(PID.TID 0000.0001) %MON dynstat_wvel_min             =  -1.1064140917053E-03
(PID.TID 0000.0001) %MON dynstat_wvel_mean            =   1.4395436751544E-10
(PID.TID 0000.0001) %MON dynstat_wvel_sd              =   1.6317277439507E-05
(PID.TID 0000.0001) %MON dynstat_wvel_del2            =   6.8660276429321E-08
(PID.TID 0000.0001) %MON dynstat_theta_max            =   1.2000000000000E+00
(PID.TID 0000.0001) %MON dynstat_theta_min            =  -1.0000000000000E+00
(PID.TID 0000.0001) %MON dynstat_theta_mean           =   5.6519540848643E-01
(PID.TID 0000.0001) %MON dynstat_theta_sd             =   8.4896792684135E-01
(PID.TID 0000.0001) %MON dynstat_theta_del2           =   2.4543525323952E-06
(PID.TID 0000.0001) %MON dynstat_salt_max             =   3.4700000000000E+01
(PID.TID 0000.0001) %MON dynstat_salt_min             =   3.4000000000000E+01
(PID.TID 0000.0001) %MON dynstat_salt_mean            =   3.4497992113156E+01
(PID.TID 0000.0001) %MON dynstat_salt_sd              =   2.7012336987086E-01
(PID.TID 0000.0001) %MON dynstat_salt_del2            =   9.6965219063831E-07
(PID.TID 0000.0001) %MON advcfl_uvel_max              =   2.4053486309728E-03
(PID.TID 0000.0001) %MON advcfl_vvel_max              =   1.7581078925292E-03
(PID.TID 0000.0001) %MON advcfl_wvel_max              =   5.5320704585263E-03
(PID.TID 0000.0001) %MON advcfl_W_hf_max              =   5.5320704585263E-03
(PID.TID 0000.0001) %MON pe_b_mean                    =  -6.8221252834404E-01
(PID.TID 0000.0001) %MON ke_max                       =   2.1197847075275E-04
(PID.TID 0000.0001) %MON ke_mean                      =   2.6281516008536E-07
(PID.TID 0000.0001) %MON ke_vol                       =   4.6183020008143E+12
(PID.TID 0000.0001) // =======================================================
(PID.TID 0000.0001) // End MONITOR dynamic field statistics
(PID.TID 0000.0001) // =======================================================
(PID.TID 0000.0001) // =======================================================
(PID.TID 0000.0001) // Begin OBCS MONITOR field statistics
(PID.TID 0000.0001) // =======================================================
(PID.TID 0000.0001) %MON obc_N_vVel_max               =   1.0906064373248E-07
(PID.TID 0000.0001) %MON obc_N_vVel_min               =   1.0906064373248E-07
(PID.TID 0000.0001) %MON obc_N_vVel_mean              =   1.0906064373248E-07
(PID.TID 0000.0001) %MON obc_N_vVel_sd                =  -9.1981181548770E-28
(PID.TID 0000.0001) %MON obc_N_vVel_Int               =   7.1980024863436E+00
(PID.TID 0000.0001) // =======================================================
(PID.TID 0000.0001) // End OBCS MONITOR field statistics
(PID.TID 0000.0001) // =======================================================
 cg2d: Sum(rhs),rhsMax =   3.00951959280329E+00  4.53045386696973E+02
(PID.TID 0000.0001)      cg2d_init_res =   2.91465620588564E-06
(PID.TID 0000.0001)      cg2d_iters(min,last) =      -1      74
(PID.TID 0000.0001)      cg2d_last_res =   9.04586282083850E-12
(PID.TID 0000.0001) // =======================================================
(PID.TID 0000.0001) // Begin MONITOR dynamic field statistics
(PID.TID 0000.0001) // =======================================================
(PID.TID 0000.0001) %MON time_tsnumber                =                  1056
(PID.TID 0000.0001) %MON time_secondsf                =   1.0560000000000E+05
(PID.TID 0000.0001) %MON dynstat_eta_max              =   5.7983920714882E+00
(PID.TID 0000.0001) %MON dynstat_eta_min              =  -1.4172466154294E+01
(PID.TID 0000.0001) %MON dynstat_eta_mean             =  -2.5249054957290E+00
(PID.TID 0000.0001) %MON dynstat_eta_sd               =   4.9413172471947E+00
(PID.TID 0000.0001) %MON dynstat_eta_del2             =   1.9058523229005E-01
(PID.TID 0000.0001) %MON dynstat_uvel_max             =   5.1243382592787E-03
(PID.TID 0000.0001) %MON dynstat_uvel_min             =  -2.4115708541710E-02
(PID.TID 0000.0001) %MON dynstat_uvel_mean            =   6.3807813670844E-10
(PID.TID 0000.0001) %MON dynstat_uvel_sd              =   6.5222379315773E-04
(PID.TID 0000.0001) %MON dynstat_uvel_del2            =   1.0050904320774E-06
(PID.TID 0000.0001) %MON dynstat_vvel_max             =   1.7617791380840E-02
(PID.TID 0000.0001) %MON dynstat_vvel_min             =  -6.4342073832906E-03
(PID.TID 0000.0001) %MON dynstat_vvel_mean            =   1.1697413678560E-07
(PID.TID 0000.0001) %MON dynstat_vvel_sd              =   3.3291364079569E-04
(PID.TID 0000.0001) %MON dynstat_vvel_del2            =   8.7406776081885E-07
(PID.TID 0000.0001) %MON dynstat_wvel_max             =   9.8280640266798E-04
(PID.TID 0000.0001) %MON dynstat_wvel_min             =  -1.1097973816020E-03
(PID.TID 0000.0001) %MON dynstat_wvel_mean            =   1.3887722136066E-10
(PID.TID 0000.0001) %MON dynstat_wvel_sd              =   1.6350615869739E-05
(PID.TID 0000.0001) %MON dynstat_wvel_del2            =   6.8798221039417E-08
(PID.TID 0000.0001) %MON dynstat_theta_max            =   1.2000000000000E+00
(PID.TID 0000.0001) %MON dynstat_theta_min            =  -1.0000000000000E+00
(PID.TID 0000.0001) %MON dynstat_theta_mean           =   5.6519482810319E-01
(PID.TID 0000.0001) %MON dynstat_theta_sd             =   8.4896767887347E-01
(PID.TID 0000.0001) %MON dynstat_theta_del2           =   2.4595377606558E-06
(PID.TID 0000.0001) %MON dynstat_salt_max             =   3.4700000000000E+01
(PID.TID 0000.0001) %MON dynstat_salt_min             =   3.4000000000000E+01
(PID.TID 0000.0001) %MON dynstat_salt_mean            =   3.4497991881561E+01
(PID.TID 0000.0001) %MON dynstat_salt_sd              =   2.7012327680634E-01
(PID.TID 0000.0001) %MON dynstat_salt_del2            =   9.7171606150094E-07
(PID.TID 0000.0001) %MON advcfl_uvel_max              =   2.4115708541710E-03
(PID.TID 0000.0001) %MON advcfl_vvel_max              =   1.7617791380840E-03
(PID.TID 0000.0001) %MON advcfl_wvel_max              =   5.5489869080100E-03
(PID.TID 0000.0001) %MON advcfl_W_hf_max              =   5.5489869080100E-03
(PID.TID 0000.0001) %MON pe_b_mean                    =  -6.8221101158047E-01
(PID.TID 0000.0001) %MON ke_max                       =   2.1322264347649E-04
(PID.TID 0000.0001) %MON ke_mean                      =   2.6411361977098E-07
(PID.TID 0000.0001) %MON ke_vol                       =   4.6183020310186E+12
(PID.TID 0000.0001) // =======================================================
(PID.TID 0000.0001) // End MONITOR dynamic field statistics
(PID.TID 0000.0001) // =======================================================
(PID.TID 0000.0001) // =======================================================
(PID.TID 0000.0001) // Begin OBCS MONITOR field statistics
(PID.TID 0000.0001) // =======================================================
(PID.TID 0000.0001) %MON obc_N_vVel_max               =   9.7759249494156E-08
(PID.TID 0000.0001) %MON obc_N_vVel_min               =   9.7759249494154E-08
(PID.TID 0000.0001) %MON obc_N_vVel_mean              =   9.7759249494156E-08
(PID.TID 0000.0001) %MON obc_N_vVel_sd                =  -4.6858337770128E-28
(PID.TID 0000.0001) %MON obc_N_vVel_Int               =   6.4521104666143E+00
(PID.TID 0000.0001) // =======================================================
(PID.TID 0000.0001) // End OBCS MONITOR field statistics
(PID.TID 0000.0001) // =======================================================
 cg2d: Sum(rhs),rhsMax =   3.00951359383411E+00  4.53045369120721E+02
(PID.TID 0000.0001)      cg2d_init_res =   2.92290352662536E-06
(PID.TID 0000.0001)      cg2d_iters(min,last) =      -1      74
(PID.TID 0000.0001)      cg2d_last_res =   9.07016044626625E-12
(PID.TID 0000.0001) // =======================================================
(PID.TID 0000.0001) // Begin MONITOR dynamic field statistics
(PID.TID 0000.0001) // =======================================================
(PID.TID 0000.0001) %MON time_tsnumber                =                  1057
(PID.TID 0000.0001) %MON time_secondsf                =   1.0570000000000E+05
(PID.TID 0000.0001) %MON dynstat_eta_max              =   5.7983946738477E+00
(PID.TID 0000.0001) %MON dynstat_eta_min              =  -1.4172455107908E+01
(PID.TID 0000.0001) %MON dynstat_eta_mean             =  -2.5249003648007E+00
(PID.TID 0000.0001) %MON dynstat_eta_sd               =   4.9413157475224E+00
(PID.TID 0000.0001) %MON dynstat_eta_del2             =   1.9058524715678E-01
(PID.TID 0000.0001) %MON dynstat_uvel_max             =   5.1372236990535E-03
(PID.TID 0000.0001) %MON dynstat_uvel_min             =  -2.4178023257878E-02
(PID.TID 0000.0001) %MON dynstat_uvel_mean            =   7.0222267045697E-10
(PID.TID 0000.0001) %MON dynstat_uvel_sd              =   6.5390346705388E-04
(PID.TID 0000.0001) %MON dynstat_uvel_del2            =   1.0075509013739E-06
(PID.TID 0000.0001) %MON dynstat_vvel_max             =   1.7654537044378E-02
(PID.TID 0000.0001) %MON dynstat_vvel_min             =  -6.4485054343786E-03
(PID.TID 0000.0001) %MON dynstat_vvel_mean            =   1.0348040001310E-07
(PID.TID 0000.0001) %MON dynstat_vvel_sd              =   3.3359968595424E-04
(PID.TID 0000.0001) %MON dynstat_vvel_del2            =   8.7596699264329E-07
(PID.TID 0000.0001) %MON dynstat_wvel_max             =   9.8521858417230E-04
(PID.TID 0000.0001) %MON dynstat_wvel_min             =  -1.1131887040415E-03
(PID.TID 0000.0001) %MON dynstat_wvel_mean            =   1.3512084928098E-10
(PID.TID 0000.0001) %MON dynstat_wvel_sd              =   1.6390958757096E-05
(PID.TID 0000.0001) %MON dynstat_wvel_del2            =   6.8973742427798E-08
(PID.TID 0000.0001) %MON dynstat_theta_max            =   1.2000000000000E+00
(PID.TID 0000.0001) %MON dynstat_theta_min            =  -1.0000000000000E+00
(PID.TID 0000.0001) %MON dynstat_theta_mean           =   5.6519424664082E-01
(PID.TID 0000.0001) %MON dynstat_theta_sd             =   8.4896743036597E-01
(PID.TID 0000.0001) %MON dynstat_theta_del2           =   2.4647162388595E-06
(PID.TID 0000.0001) %MON dynstat_salt_max             =   3.4700000000000E+01
(PID.TID 0000.0001) %MON dynstat_salt_min             =   3.4000000000000E+01
(PID.TID 0000.0001) %MON dynstat_salt_mean            =   3.4497991649533E+01
(PID.TID 0000.0001) %MON dynstat_salt_sd              =   2.7012318353316E-01
(PID.TID 0000.0001) %MON dynstat_salt_del2            =   9.7377974652303E-07
(PID.TID 0000.0001) %MON advcfl_uvel_max              =   2.4178023257878E-03
(PID.TID 0000.0001) %MON advcfl_vvel_max              =   1.7654537044378E-03
(PID.TID 0000.0001) %MON advcfl_wvel_max              =   5.5659435202075E-03
(PID.TID 0000.0001) %MON advcfl_W_hf_max              =   5.5659435202075E-03
(PID.TID 0000.0001) %MON pe_b_mean                    =  -6.8220948882438E-01
(PID.TID 0000.0001) %MON ke_max                       =   2.1447308771507E-04
(PID.TID 0000.0001) %MON ke_mean                      =   2.6541855395092E-07
(PID.TID 0000.0001) %MON ke_vol                       =   4.6183020613554E+12
(PID.TID 0000.0001) // =======================================================
(PID.TID 0000.0001) // End MONITOR dynamic field statistics
(PID.TID 0000.0001) // =======================================================
(PID.TID 0000.0001) // =======================================================
(PID.TID 0000.0001) // Begin OBCS MONITOR field statistics
(PID.TID 0000.0001) // =======================================================
(PID.TID 0000.0001) %MON obc_N_vVel_max               =   8.5171043766205E-08
(PID.TID 0000.0001) %MON obc_N_vVel_min               =   8.5171043766204E-08
(PID.TID 0000.0001) %MON obc_N_vVel_mean              =   8.5171043766204E-08
(PID.TID 0000.0001) %MON obc_N_vVel_sd                =   1.3528330643922E-14
(PID.TID 0000.0001) %MON obc_N_vVel_Int               =   5.6212888885695E+00
(PID.TID 0000.0001) // =======================================================
(PID.TID 0000.0001) // End OBCS MONITOR field statistics
(PID.TID 0000.0001) // =======================================================
 cg2d: Sum(rhs),rhsMax =   3.00950756906804E+00  4.53045350936888E+02
(PID.TID 0000.0001)      cg2d_init_res =   2.93142821396517E-06
(PID.TID 0000.0001)      cg2d_iters(min,last) =      -1      74
(PID.TID 0000.0001)      cg2d_last_res =   9.09478321664694E-12
(PID.TID 0000.0001) // =======================================================
(PID.TID 0000.0001) // Begin MONITOR dynamic field statistics
(PID.TID 0000.0001) // =======================================================
(PID.TID 0000.0001) %MON time_tsnumber                =                  1058
(PID.TID 0000.0001) %MON time_secondsf                =   1.0580000000000E+05
(PID.TID 0000.0001) %MON dynstat_eta_max              =   5.7983973023586E+00
(PID.TID 0000.0001) %MON dynstat_eta_min              =  -1.4172444010011E+01
(PID.TID 0000.0001) %MON dynstat_eta_mean             =  -2.5248952088438E+00
(PID.TID 0000.0001) %MON dynstat_eta_sd               =   4.9413142387643E+00
(PID.TID 0000.0001) %MON dynstat_eta_del2             =   1.9058526202824E-01
(PID.TID 0000.0001) %MON dynstat_uvel_max             =   5.1501391739635E-03
(PID.TID 0000.0001) %MON dynstat_uvel_min             =  -2.4240430293621E-02
(PID.TID 0000.0001) %MON dynstat_uvel_mean            =   7.6099272793942E-10
(PID.TID 0000.0001) %MON dynstat_uvel_sd              =   6.5558654499674E-04
(PID.TID 0000.0001) %MON dynstat_uvel_del2            =   1.0100175060729E-06
(PID.TID 0000.0001) %MON dynstat_vvel_max             =   1.7691315832004E-02
(PID.TID 0000.0001) %MON dynstat_vvel_min             =  -6.4628272979057E-03
(PID.TID 0000.0001) %MON dynstat_vvel_mean            =   8.8898771430011E-08
(PID.TID 0000.0001) %MON dynstat_vvel_sd              =   3.3428885006145E-04
(PID.TID 0000.0001) %MON dynstat_vvel_del2            =   8.7788223223525E-07
(PID.TID 0000.0001) %MON dynstat_wvel_max             =   9.8763453496306E-04
(PID.TID 0000.0001) %MON dynstat_wvel_min             =  -1.1165880570803E-03
(PID.TID 0000.0001) %MON dynstat_wvel_mean            =   1.3274342270293E-10
(PID.TID 0000.0001) %MON dynstat_wvel_sd              =   1.6437963919250E-05
(PID.TID 0000.0001) %MON dynstat_wvel_del2            =   6.9183858266091E-08
(PID.TID 0000.0001) %MON dynstat_theta_max            =   1.2000000000000E+00
(PID.TID 0000.0001) %MON dynstat_theta_min            =  -1.0000000000000E+00
(PID.TID 0000.0001) %MON dynstat_theta_mean           =   5.6519366409663E-01
(PID.TID 0000.0001) %MON dynstat_theta_sd             =   8.4896718131694E-01
(PID.TID 0000.0001) %MON dynstat_theta_del2           =   2.4698898132954E-06
(PID.TID 0000.0001) %MON dynstat_salt_max             =   3.4700000000000E+01
(PID.TID 0000.0001) %MON dynstat_salt_min             =   3.4000000000000E+01
(PID.TID 0000.0001) %MON dynstat_salt_mean            =   3.4497991417072E+01
(PID.TID 0000.0001) %MON dynstat_salt_sd              =   2.7012309005047E-01
(PID.TID 0000.0001) %MON dynstat_salt_del2            =   9.7584368139052E-07
(PID.TID 0000.0001) %MON advcfl_uvel_max              =   2.4240430293621E-03
(PID.TID 0000.0001) %MON advcfl_vvel_max              =   1.7691315832004E-03
(PID.TID 0000.0001) %MON advcfl_wvel_max              =   5.5829402854017E-03
(PID.TID 0000.0001) %MON advcfl_W_hf_max              =   5.5829402854017E-03
(PID.TID 0000.0001) %MON pe_b_mean                    =  -6.8220795984750E-01
(PID.TID 0000.0001) %MON ke_max                       =   2.1572982934395E-04
(PID.TID 0000.0001) %MON ke_mean                      =   2.6672995941017E-07
(PID.TID 0000.0001) %MON ke_vol                       =   4.6183020918331E+12
(PID.TID 0000.0001) // =======================================================
(PID.TID 0000.0001) // End MONITOR dynamic field statistics
(PID.TID 0000.0001) // =======================================================
(PID.TID 0000.0001) // =======================================================
(PID.TID 0000.0001) // Begin OBCS MONITOR field statistics
(PID.TID 0000.0001) // =======================================================
(PID.TID 0000.0001) %MON obc_N_vVel_max               =   7.1426864760062E-08
(PID.TID 0000.0001) %MON obc_N_vVel_min               =   7.1426864760062E-08
(PID.TID 0000.0001) %MON obc_N_vVel_mean              =   7.1426864760062E-08
(PID.TID 0000.0001) %MON obc_N_vVel_sd                =   5.0242958677881E-15
(PID.TID 0000.0001) %MON obc_N_vVel_Int               =   4.7141730741641E+00
(PID.TID 0000.0001) // =======================================================
(PID.TID 0000.0001) // End OBCS MONITOR field statistics
(PID.TID 0000.0001) // =======================================================
 cg2d: Sum(rhs),rhsMax =   3.00950151674572E+00  4.53045332206763E+02
(PID.TID 0000.0001)      cg2d_init_res =   2.94020712059073E-06
(PID.TID 0000.0001)      cg2d_iters(min,last) =      -1      74
(PID.TID 0000.0001)      cg2d_last_res =   9.11970323986571E-12
(PID.TID 0000.0001) // =======================================================
(PID.TID 0000.0001) // Begin MONITOR dynamic field statistics
(PID.TID 0000.0001) // =======================================================
(PID.TID 0000.0001) %MON time_tsnumber                =                  1059
(PID.TID 0000.0001) %MON time_secondsf                =   1.0590000000000E+05
(PID.TID 0000.0001) %MON dynstat_eta_max              =   5.7983999585649E+00
(PID.TID 0000.0001) %MON dynstat_eta_min              =  -1.4172432858854E+01
(PID.TID 0000.0001) %MON dynstat_eta_mean             =  -2.5248900267237E+00
(PID.TID 0000.0001) %MON dynstat_eta_sd               =   4.9413127207196E+00
(PID.TID 0000.0001) %MON dynstat_eta_del2             =   1.9058527690550E-01
(PID.TID 0000.0001) %MON dynstat_uvel_max             =   5.1630847377346E-03
(PID.TID 0000.0001) %MON dynstat_uvel_min             =  -2.4302929482890E-02
(PID.TID 0000.0001) %MON dynstat_uvel_mean            =   8.1382617115809E-10
(PID.TID 0000.0001) %MON dynstat_uvel_sd              =   6.5727303504401E-04
(PID.TID 0000.0001) %MON dynstat_uvel_del2            =   1.0124902651429E-06
(PID.TID 0000.0001) %MON dynstat_vvel_max             =   1.7728127661014E-02
(PID.TID 0000.0001) %MON dynstat_vvel_min             =  -6.4771729584168E-03
(PID.TID 0000.0001) %MON dynstat_vvel_mean            =   7.3384690547238E-08
(PID.TID 0000.0001) %MON dynstat_vvel_sd              =   3.3498094654315E-04
(PID.TID 0000.0001) %MON dynstat_vvel_del2            =   8.7981148892858E-07
(PID.TID 0000.0001) %MON dynstat_wvel_max             =   9.9005425366956E-04
(PID.TID 0000.0001) %MON dynstat_wvel_min             =  -1.1199954388246E-03
(PID.TID 0000.0001) %MON dynstat_wvel_mean            =   1.3178807784345E-10
(PID.TID 0000.0001) %MON dynstat_wvel_sd              =   1.6490954901788E-05
(PID.TID 0000.0001) %MON dynstat_wvel_del2            =   6.9423706846342E-08
(PID.TID 0000.0001) %MON dynstat_theta_max            =   1.2000000000000E+00
(PID.TID 0000.0001) %MON dynstat_theta_min            =  -1.0000000000000E+00
(PID.TID 0000.0001) %MON dynstat_theta_mean           =   5.6519308046791E-01
(PID.TID 0000.0001) %MON dynstat_theta_sd             =   8.4896693172242E-01
(PID.TID 0000.0001) %MON dynstat_theta_del2           =   2.4750610265802E-06
(PID.TID 0000.0001) %MON dynstat_salt_max             =   3.4700000000000E+01
(PID.TID 0000.0001) %MON dynstat_salt_min             =   3.4000000000000E+01
(PID.TID 0000.0001) %MON dynstat_salt_mean            =   3.4497991184177E+01
(PID.TID 0000.0001) %MON dynstat_salt_sd              =   2.7012299635700E-01
(PID.TID 0000.0001) %MON dynstat_salt_del2            =   9.7790852129311E-07
(PID.TID 0000.0001) %MON advcfl_uvel_max              =   2.4302929482890E-03
(PID.TID 0000.0001) %MON advcfl_vvel_max              =   1.7728127661014E-03
(PID.TID 0000.0001) %MON advcfl_wvel_max              =   5.5999771941230E-03
(PID.TID 0000.0001) %MON advcfl_W_hf_max              =   5.5999771941230E-03
(PID.TID 0000.0001) %MON pe_b_mean                    =  -6.8220642445583E-01
(PID.TID 0000.0001) %MON ke_max                       =   2.1699289431595E-04
(PID.TID 0000.0001) %MON ke_mean                      =   2.6804780222000E-07
(PID.TID 0000.0001) %MON ke_vol                       =   4.6183021224595E+12
(PID.TID 0000.0001) // =======================================================
(PID.TID 0000.0001) // End MONITOR dynamic field statistics
(PID.TID 0000.0001) // =======================================================
(PID.TID 0000.0001) // =======================================================
(PID.TID 0000.0001) // Begin OBCS MONITOR field statistics
(PID.TID 0000.0001) // =======================================================
(PID.TID 0000.0001) %MON obc_N_vVel_max               =   5.6671562958890E-08
(PID.TID 0000.0001) %MON obc_N_vVel_min               =   5.6671562958888E-08
(PID.TID 0000.0001) %MON obc_N_vVel_mean              =   5.6671562958888E-08
(PID.TID 0000.0001) %MON obc_N_vVel_sd                =   1.3601025044986E-14
(PID.TID 0000.0001) %MON obc_N_vVel_Int               =   3.7403231552866E+00
(PID.TID 0000.0001) // =======================================================
(PID.TID 0000.0001) // End OBCS MONITOR field statistics
(PID.TID 0000.0001) // =======================================================
 cg2d: Sum(rhs),rhsMax =   3.00949543527584E+00  4.53045312997476E+02
(PID.TID 0000.0001)      cg2d_init_res =   2.94917455874572E-06
(PID.TID 0000.0001)      cg2d_iters(min,last) =      -1      74
(PID.TID 0000.0001)      cg2d_last_res =   9.14484294558146E-12
(PID.TID 0000.0001) // =======================================================
(PID.TID 0000.0001) // Begin MONITOR dynamic field statistics
(PID.TID 0000.0001) // =======================================================
(PID.TID 0000.0001) %MON time_tsnumber                =                  1060
(PID.TID 0000.0001) %MON time_secondsf                =   1.0600000000000E+05
(PID.TID 0000.0001) %MON dynstat_eta_max              =   5.7984026437192E+00
(PID.TID 0000.0001) %MON dynstat_eta_min              =  -1.4172421653024E+01
(PID.TID 0000.0001) %MON dynstat_eta_mean             =  -2.5248848174797E+00
(PID.TID 0000.0001) %MON dynstat_eta_sd               =   4.9413111932586E+00
(PID.TID 0000.0001) %MON dynstat_eta_del2             =   1.9058529178994E-01
(PID.TID 0000.0001) %MON dynstat_uvel_max             =   5.1760604440290E-03
(PID.TID 0000.0001) %MON dynstat_uvel_min             =  -2.4365520658144E-02
(PID.TID 0000.0001) %MON dynstat_uvel_mean            =   8.6021916750761E-10
(PID.TID 0000.0001) %MON dynstat_uvel_sd              =   6.5896294548573E-04
(PID.TID 0000.0001) %MON dynstat_uvel_del2            =   1.0149691977224E-06
(PID.TID 0000.0001) %MON dynstat_vvel_max             =   1.7764972450187E-02
(PID.TID 0000.0001) %MON dynstat_vvel_min             =  -6.4915423991225E-03
(PID.TID 0000.0001) %MON dynstat_vvel_mean            =   5.7105441447353E-08
(PID.TID 0000.0001) %MON dynstat_vvel_sd              =   3.3567570683464E-04
(PID.TID 0000.0001) %MON dynstat_vvel_del2            =   8.8175229985207E-07
(PID.TID 0000.0001) %MON dynstat_wvel_max             =   9.9247773888888E-04
(PID.TID 0000.0001) %MON dynstat_wvel_min             =  -1.1234108473794E-03
(PID.TID 0000.0001) %MON dynstat_wvel_mean            =   1.3228307159294E-10
(PID.TID 0000.0001) %MON dynstat_wvel_sd              =   1.6548965175152E-05
(PID.TID 0000.0001) %MON dynstat_wvel_del2            =   6.9686928365398E-08
(PID.TID 0000.0001) %MON dynstat_theta_max            =   1.2000000000000E+00
(PID.TID 0000.0001) %MON dynstat_theta_min            =  -1.0000000000000E+00
(PID.TID 0000.0001) %MON dynstat_theta_mean           =   5.6519249575187E-01
(PID.TID 0000.0001) %MON dynstat_theta_sd             =   8.4896668157905E-01
(PID.TID 0000.0001) %MON dynstat_theta_del2           =   2.4802329585465E-06
(PID.TID 0000.0001) %MON dynstat_salt_max             =   3.4700000000000E+01
(PID.TID 0000.0001) %MON dynstat_salt_min             =   3.4000000000000E+01
(PID.TID 0000.0001) %MON dynstat_salt_mean            =   3.4497990950847E+01
(PID.TID 0000.0001) %MON dynstat_salt_sd              =   2.7012290245146E-01
(PID.TID 0000.0001) %MON dynstat_salt_del2            =   9.7997505670424E-07
(PID.TID 0000.0001) %MON advcfl_uvel_max              =   2.4365520658144E-03
(PID.TID 0000.0001) %MON advcfl_vvel_max              =   1.7764972450187E-03
(PID.TID 0000.0001) %MON advcfl_wvel_max              =   5.6170542368969E-03
(PID.TID 0000.0001) %MON advcfl_W_hf_max              =   5.6170542368969E-03
(PID.TID 0000.0001) %MON pe_b_mean                    =  -6.8220488249189E-01
(PID.TID 0000.0001) %MON ke_max                       =   2.1826230866184E-04
(PID.TID 0000.0001) %MON ke_mean                      =   2.6937202067258E-07
(PID.TID 0000.0001) %MON ke_vol                       =   4.6183021532413E+12
(PID.TID 0000.0001) // =======================================================
(PID.TID 0000.0001) // End MONITOR dynamic field statistics
(PID.TID 0000.0001) // =======================================================
(PID.TID 0000.0001) // =======================================================
(PID.TID 0000.0001) // Begin OBCS MONITOR field statistics
(PID.TID 0000.0001) // =======================================================
(PID.TID 0000.0001) %MON obc_N_vVel_max               =   4.1062550084610E-08
(PID.TID 0000.0001) %MON obc_N_vVel_min               =   4.1062550084609E-08
(PID.TID 0000.0001) %MON obc_N_vVel_mean              =   4.1062550084610E-08
(PID.TID 0000.0001) %MON obc_N_vVel_sd                =  -3.9837475713661E-29
(PID.TID 0000.0001) %MON obc_N_vVel_Int               =   2.7101283055843E+00
(PID.TID 0000.0001) // =======================================================
(PID.TID 0000.0001) // End OBCS MONITOR field statistics
(PID.TID 0000.0001) // =======================================================
 cg2d: Sum(rhs),rhsMax =   3.00948932325491E+00  4.53045293381594E+02
(PID.TID 0000.0001)      cg2d_init_res =   2.95825484143385E-06
(PID.TID 0000.0001)      cg2d_iters(min,last) =      -1      74
(PID.TID 0000.0001)      cg2d_last_res =   9.17016570761940E-12
(PID.TID 0000.0001) // =======================================================
(PID.TID 0000.0001) // Begin MONITOR dynamic field statistics
(PID.TID 0000.0001) // =======================================================
(PID.TID 0000.0001) %MON time_tsnumber                =                  1061
(PID.TID 0000.0001) %MON time_secondsf                =   1.0610000000000E+05
(PID.TID 0000.0001) %MON dynstat_eta_max              =   5.7984053587611E+00
(PID.TID 0000.0001) %MON dynstat_eta_min              =  -1.4172410391463E+01
(PID.TID 0000.0001) %MON dynstat_eta_mean             =  -2.5248795803385E+00
(PID.TID 0000.0001) %MON dynstat_eta_sd               =   4.9413096563231E+00
(PID.TID 0000.0001) %MON dynstat_eta_del2             =   1.9058530668316E-01
(PID.TID 0000.0001) %MON dynstat_uvel_max             =   5.1890663460661E-03
(PID.TID 0000.0001) %MON dynstat_uvel_min             =  -2.4428203650173E-02
(PID.TID 0000.0001) %MON dynstat_uvel_mean            =   8.9973702817091E-10
(PID.TID 0000.0001) %MON dynstat_uvel_sd              =   6.6065628479083E-04
(PID.TID 0000.0001) %MON dynstat_uvel_del2            =   1.0174543228815E-06
(PID.TID 0000.0001) %MON dynstat_vvel_max             =   1.7801850119541E-02
(PID.TID 0000.0001) %MON dynstat_vvel_min             =  -6.5059356020774E-03
(PID.TID 0000.0001) %MON dynstat_vvel_mean            =   4.0238420106039E-08
(PID.TID 0000.0001) %MON dynstat_vvel_sd              =   3.3637279403591E-04
(PID.TID 0000.0001) %MON dynstat_vvel_del2            =   8.8370187018467E-07
(PID.TID 0000.0001) %MON dynstat_wvel_max             =   9.9490498920249E-04
(PID.TID 0000.0001) %MON dynstat_wvel_min             =  -1.1268342808478E-03
(PID.TID 0000.0001) %MON dynstat_wvel_mean            =   1.3424131870583E-10
(PID.TID 0000.0001) %MON dynstat_wvel_sd              =   1.6610797828889E-05
(PID.TID 0000.0001) %MON dynstat_wvel_del2            =   6.9966131513446E-08
(PID.TID 0000.0001) %MON dynstat_theta_max            =   1.2000000000000E+00
(PID.TID 0000.0001) %MON dynstat_theta_min            =  -1.0000000000000E+00
(PID.TID 0000.0001) %MON dynstat_theta_mean           =   5.6519190994593E-01
(PID.TID 0000.0001) %MON dynstat_theta_sd             =   8.4896643088389E-01
(PID.TID 0000.0001) %MON dynstat_theta_del2           =   2.4854090694027E-06
(PID.TID 0000.0001) %MON dynstat_salt_max             =   3.4700000000000E+01
(PID.TID 0000.0001) %MON dynstat_salt_min             =   3.4000000000000E+01
(PID.TID 0000.0001) %MON dynstat_salt_mean            =   3.4497990717081E+01
(PID.TID 0000.0001) %MON dynstat_salt_sd              =   2.7012280833300E-01
(PID.TID 0000.0001) %MON dynstat_salt_del2            =   9.8204417777305E-07
(PID.TID 0000.0001) %MON advcfl_uvel_max              =   2.4428203650173E-03
(PID.TID 0000.0001) %MON advcfl_vvel_max              =   1.7801850119541E-03
(PID.TID 0000.0001) %MON advcfl_wvel_max              =   5.6341714042389E-03
(PID.TID 0000.0001) %MON advcfl_W_hf_max              =   5.6341714042389E-03
(PID.TID 0000.0001) %MON pe_b_mean                    =  -6.8220333383714E-01
(PID.TID 0000.0001) %MON ke_max                       =   2.1953809848094E-04
(PID.TID 0000.0001) %MON ke_mean                      =   2.7070252954824E-07
(PID.TID 0000.0001) %MON ke_vol                       =   4.6183021841842E+12
(PID.TID 0000.0001) // =======================================================
(PID.TID 0000.0001) // End MONITOR dynamic field statistics
(PID.TID 0000.0001) // =======================================================
(PID.TID 0000.0001) // =======================================================
(PID.TID 0000.0001) // Begin OBCS MONITOR field statistics
(PID.TID 0000.0001) // =======================================================
(PID.TID 0000.0001) %MON obc_N_vVel_max               =   2.4768178332675E-08
(PID.TID 0000.0001) %MON obc_N_vVel_min               =   2.4768178332675E-08
(PID.TID 0000.0001) %MON obc_N_vVel_mean              =   2.4768178332675E-08
(PID.TID 0000.0001) %MON obc_N_vVel_sd                =   3.9596225187848E-15
(PID.TID 0000.0001) %MON obc_N_vVel_Int               =   1.6346997699565E+00
(PID.TID 0000.0001) // =======================================================
(PID.TID 0000.0001) // End OBCS MONITOR field statistics
(PID.TID 0000.0001) // =======================================================
 cg2d: Sum(rhs),rhsMax =   3.00948317948603E+00  4.53045273435810E+02
(PID.TID 0000.0001)      cg2d_init_res =   2.96736358406711E-06
(PID.TID 0000.0001)      cg2d_iters(min,last) =      -1      74
(PID.TID 0000.0001)      cg2d_last_res =   9.19562269502091E-12
(PID.TID 0000.0001) // =======================================================
(PID.TID 0000.0001) // Begin MONITOR dynamic field statistics
(PID.TID 0000.0001) // =======================================================
(PID.TID 0000.0001) %MON time_tsnumber                =                  1062
(PID.TID 0000.0001) %MON time_secondsf                =   1.0620000000000E+05
(PID.TID 0000.0001) %MON dynstat_eta_max              =   5.7984081042993E+00
(PID.TID 0000.0001) %MON dynstat_eta_min              =  -1.4172399073472E+01
(PID.TID 0000.0001) %MON dynstat_eta_mean             =  -2.5248743147235E+00
(PID.TID 0000.0001) %MON dynstat_eta_sd               =   4.9413081099301E+00
(PID.TID 0000.0001) %MON dynstat_eta_del2             =   1.9058532158706E-01
(PID.TID 0000.0001) %MON dynstat_uvel_max             =   5.2021024968321E-03
(PID.TID 0000.0001) %MON dynstat_uvel_min             =  -2.4490978288136E-02
(PID.TID 0000.0001) %MON dynstat_uvel_mean            =   9.3201927356546E-10
(PID.TID 0000.0001) %MON dynstat_uvel_sd              =   6.6235306155500E-04
(PID.TID 0000.0001) %MON dynstat_uvel_del2            =   1.0199456592691E-06
(PID.TID 0000.0001) %MON dynstat_vvel_max             =   1.7838760590206E-02
(PID.TID 0000.0001) %MON dynstat_vvel_min             =  -6.5203525482520E-03
(PID.TID 0000.0001) %MON dynstat_vvel_mean            =   2.2969252063652E-08
(PID.TID 0000.0001) %MON dynstat_vvel_sd              =   3.3707181967946E-04
(PID.TID 0000.0001) %MON dynstat_vvel_del2            =   8.8565722775273E-07
(PID.TID 0000.0001) %MON dynstat_wvel_max             =   9.9733600316280E-04
(PID.TID 0000.0001) %MON dynstat_wvel_min             =  -1.1302657373088E-03
(PID.TID 0000.0001) %MON dynstat_wvel_mean            =   1.3765908122600E-10
(PID.TID 0000.0001) %MON dynstat_wvel_sd              =   1.6675095869462E-05
(PID.TID 0000.0001) %MON dynstat_wvel_del2            =   7.0253401375310E-08
(PID.TID 0000.0001) %MON dynstat_theta_max            =   1.2000000000000E+00
(PID.TID 0000.0001) %MON dynstat_theta_min            =  -1.0000000000000E+00
(PID.TID 0000.0001) %MON dynstat_theta_mean           =   5.6519132304754E-01
(PID.TID 0000.0001) %MON dynstat_theta_sd             =   8.4896617963423E-01
(PID.TID 0000.0001) %MON dynstat_theta_del2           =   2.4905930411391E-06
(PID.TID 0000.0001) %MON dynstat_salt_max             =   3.4700000000000E+01
(PID.TID 0000.0001) %MON dynstat_salt_min             =   3.4000000000000E+01
(PID.TID 0000.0001) %MON dynstat_salt_mean            =   3.4497990482878E+01
(PID.TID 0000.0001) %MON dynstat_salt_sd              =   2.7012271400059E-01
(PID.TID 0000.0001) %MON dynstat_salt_del2            =   9.8411680451162E-07
(PID.TID 0000.0001) %MON advcfl_uvel_max              =   2.4490978288136E-03
(PID.TID 0000.0001) %MON advcfl_vvel_max              =   1.7838760590206E-03
(PID.TID 0000.0001) %MON advcfl_wvel_max              =   5.6513286865441E-03
(PID.TID 0000.0001) %MON advcfl_W_hf_max              =   5.6513286865441E-03
(PID.TID 0000.0001) %MON pe_b_mean                    =  -6.8220177841338E-01
(PID.TID 0000.0001) %MON ke_max                       =   2.2082028994992E-04
(PID.TID 0000.0001) %MON ke_mean                      =   2.7203922548733E-07
(PID.TID 0000.0001) %MON ke_vol                       =   4.6183022152928E+12
(PID.TID 0000.0001) // =======================================================
(PID.TID 0000.0001) // End MONITOR dynamic field statistics
(PID.TID 0000.0001) // =======================================================
(PID.TID 0000.0001) // =======================================================
(PID.TID 0000.0001) // Begin OBCS MONITOR field statistics
(PID.TID 0000.0001) // =======================================================
(PID.TID 0000.0001) %MON obc_N_vVel_max               =   7.9660359813309E-09
(PID.TID 0000.0001) %MON obc_N_vVel_min               =   7.9660359813306E-09
(PID.TID 0000.0001) %MON obc_N_vVel_mean              =   7.9660359813309E-09
(PID.TID 0000.0001) %MON obc_N_vVel_sd                =  -5.4357446750385E-30
(PID.TID 0000.0001) %MON obc_N_vVel_Int               =   5.2575837476784E-01
(PID.TID 0000.0001) // =======================================================
(PID.TID 0000.0001) // End OBCS MONITOR field statistics
(PID.TID 0000.0001) // =======================================================
 cg2d: Sum(rhs),rhsMax =   3.00947700299095E+00  4.53045253240872E+02
(PID.TID 0000.0001)      cg2d_init_res =   2.97640911751823E-06
(PID.TID 0000.0001)      cg2d_iters(min,last) =      -1      74
(PID.TID 0000.0001)      cg2d_last_res =   9.22113008457425E-12
(PID.TID 0000.0001) // =======================================================
(PID.TID 0000.0001) // Begin MONITOR dynamic field statistics
(PID.TID 0000.0001) // =======================================================
(PID.TID 0000.0001) %MON time_tsnumber                =                  1063
(PID.TID 0000.0001) %MON time_secondsf                =   1.0630000000000E+05
(PID.TID 0000.0001) %MON dynstat_eta_max              =   5.7984108806003E+00
(PID.TID 0000.0001) %MON dynstat_eta_min              =  -1.4172387698735E+01
(PID.TID 0000.0001) %MON dynstat_eta_mean             =  -2.5248690202641E+00
(PID.TID 0000.0001) %MON dynstat_eta_sd               =   4.9413065541697E+00
(PID.TID 0000.0001) %MON dynstat_eta_del2             =   1.9058533650365E-01
(PID.TID 0000.0001) %MON dynstat_uvel_max             =   5.2151689490882E-03
(PID.TID 0000.0001) %MON dynstat_uvel_min             =  -2.4553844399570E-02
(PID.TID 0000.0001) %MON dynstat_uvel_mean            =   9.5677893930624E-10
(PID.TID 0000.0001) %MON dynstat_uvel_sd              =   6.6405328447890E-04
(PID.TID 0000.0001) %MON dynstat_uvel_del2            =   1.0224432233234E-06
(PID.TID 0000.0001) %MON dynstat_vvel_max             =   1.7875703784122E-02
(PID.TID 0000.0001) %MON dynstat_vvel_min             =  -6.5347932175532E-03
(PID.TID 0000.0001) %MON dynstat_vvel_mean            =   5.4897920921265E-09
(PID.TID 0000.0001) %MON dynstat_vvel_sd              =   3.3777236283677E-04
(PID.TID 0000.0001) %MON dynstat_vvel_del2            =   8.8761538202519E-07
(PID.TID 0000.0001) %MON dynstat_wvel_max             =   9.9977077930246E-04
(PID.TID 0000.0001) %MON dynstat_wvel_min             =  -1.1337052147980E-03
(PID.TID 0000.0001) %MON dynstat_wvel_mean            =   1.4251723212650E-10
(PID.TID 0000.0001) %MON dynstat_wvel_sd              =   1.6740417744458E-05
(PID.TID 0000.0001) %MON dynstat_wvel_del2            =   7.0540803709976E-08
(PID.TID 0000.0001) %MON dynstat_theta_max            =   1.2000000000000E+00
(PID.TID 0000.0001) %MON dynstat_theta_min            =  -1.0000000000000E+00
(PID.TID 0000.0001) %MON dynstat_theta_mean           =   5.6519073505439E-01
(PID.TID 0000.0001) %MON dynstat_theta_sd             =   8.4896592782825E-01
(PID.TID 0000.0001) %MON dynstat_theta_del2           =   2.4957884876695E-06
(PID.TID 0000.0001) %MON dynstat_salt_max             =   3.4700000000000E+01
(PID.TID 0000.0001) %MON dynstat_salt_min             =   3.4000000000000E+01
(PID.TID 0000.0001) %MON dynstat_salt_mean            =   3.4497990248237E+01
(PID.TID 0000.0001) %MON dynstat_salt_sd              =   2.7012261945369E-01
(PID.TID 0000.0001) %MON dynstat_salt_del2            =   9.8619374911973E-07
(PID.TID 0000.0001) %MON advcfl_uvel_max              =   2.4553844399570E-03
(PID.TID 0000.0001) %MON advcfl_vvel_max              =   1.7875703784122E-03
(PID.TID 0000.0001) %MON advcfl_wvel_max              =   5.6685260739901E-03
(PID.TID 0000.0001) %MON advcfl_W_hf_max              =   5.6685260739901E-03
(PID.TID 0000.0001) %MON pe_b_mean                    =  -6.8220021618435E-01
(PID.TID 0000.0001) %MON ke_max                       =   2.2210890931911E-04
(PID.TID 0000.0001) %MON ke_mean                      =   2.7338199324107E-07
(PID.TID 0000.0001) %MON ke_vol                       =   4.6183022465705E+12
(PID.TID 0000.0001) // =======================================================
(PID.TID 0000.0001) // End MONITOR dynamic field statistics
(PID.TID 0000.0001) // =======================================================
(PID.TID 0000.0001) // =======================================================
(PID.TID 0000.0001) // Begin OBCS MONITOR field statistics
(PID.TID 0000.0001) // =======================================================
(PID.TID 0000.0001) %MON obc_N_vVel_max               =  -9.1590453624559E-09
(PID.TID 0000.0001) %MON obc_N_vVel_min               =  -9.1590453624562E-09
(PID.TID 0000.0001) %MON obc_N_vVel_mean              =  -9.1590453624559E-09
(PID.TID 0000.0001) %MON obc_N_vVel_sd                =   1.7235296186091E-15
(PID.TID 0000.0001) %MON obc_N_vVel_Int               =  -6.0449699392209E-01
(PID.TID 0000.0001) // =======================================================
(PID.TID 0000.0001) // End OBCS MONITOR field statistics
(PID.TID 0000.0001) // =======================================================
 cg2d: Sum(rhs),rhsMax =   3.00947079302355E+00  4.53045232880487E+02
(PID.TID 0000.0001)      cg2d_init_res =   2.98528645427488E-06
(PID.TID 0000.0001)      cg2d_iters(min,last) =      -1      74
(PID.TID 0000.0001)      cg2d_last_res =   9.24670605188829E-12
(PID.TID 0000.0001) // =======================================================
(PID.TID 0000.0001) // Begin MONITOR dynamic field statistics
(PID.TID 0000.0001) // =======================================================
(PID.TID 0000.0001) %MON time_tsnumber                =                  1064
(PID.TID 0000.0001) %MON time_secondsf                =   1.0640000000000E+05
(PID.TID 0000.0001) %MON dynstat_eta_max              =   5.7984136875857E+00
(PID.TID 0000.0001) %MON dynstat_eta_min              =  -1.4172376267317E+01
(PID.TID 0000.0001) %MON dynstat_eta_mean             =  -2.5248636968007E+00
(PID.TID 0000.0001) %MON dynstat_eta_sd               =   4.9413049892110E+00
(PID.TID 0000.0001) %MON dynstat_eta_del2             =   1.9058535143528E-01
(PID.TID 0000.0001) %MON dynstat_uvel_max             =   5.2282657553588E-03
(PID.TID 0000.0001) %MON dynstat_uvel_min             =  -2.4616801810287E-02
(PID.TID 0000.0001) %MON dynstat_uvel_mean            =   9.7382210757173E-10
(PID.TID 0000.0001) %MON dynstat_uvel_sd              =   6.6575696218390E-04
(PID.TID 0000.0001) %MON dynstat_uvel_del2            =   1.0249470303551E-06
(PID.TID 0000.0001) %MON dynstat_vvel_max             =   1.7912679623852E-02
(PID.TID 0000.0001) %MON dynstat_vvel_min             =  -6.5492575893025E-03
(PID.TID 0000.0001) %MON dynstat_vvel_mean            =  -1.2003949087947E-08
(PID.TID 0000.0001) %MON dynstat_vvel_sd              =   3.3847399004806E-04
(PID.TID 0000.0001) %MON dynstat_vvel_del2            =   8.8957347541005E-07
(PID.TID 0000.0001) %MON dynstat_wvel_max             =   1.0022093161431E-03
(PID.TID 0000.0001) %MON dynstat_wvel_min             =  -1.1371527112604E-03
(PID.TID 0000.0001) %MON dynstat_wvel_mean            =   1.4878064812140E-10
(PID.TID 0000.0001) %MON dynstat_wvel_sd              =   1.6805312961856E-05
(PID.TID 0000.0001) %MON dynstat_wvel_del2            =   7.0820846775300E-08
(PID.TID 0000.0001) %MON dynstat_theta_max            =   1.2000000000000E+00
(PID.TID 0000.0001) %MON dynstat_theta_min            =  -1.0000000000000E+00
(PID.TID 0000.0001) %MON dynstat_theta_mean           =   5.6519014596435E-01
(PID.TID 0000.0001) %MON dynstat_theta_sd             =   8.4896567546720E-01
(PID.TID 0000.0001) %MON dynstat_theta_del2           =   2.5009991330758E-06
(PID.TID 0000.0001) %MON dynstat_salt_max             =   3.4700000000000E+01
(PID.TID 0000.0001) %MON dynstat_salt_min             =   3.4000000000000E+01
(PID.TID 0000.0001) %MON dynstat_salt_mean            =   3.4497990013158E+01
(PID.TID 0000.0001) %MON dynstat_salt_sd              =   2.7012252469246E-01
(PID.TID 0000.0001) %MON dynstat_salt_del2            =   9.8827593749758E-07
(PID.TID 0000.0001) %MON advcfl_uvel_max              =   2.4616801810287E-03
(PID.TID 0000.0001) %MON advcfl_vvel_max              =   1.7912679623852E-03
(PID.TID 0000.0001) %MON advcfl_wvel_max              =   5.6857635563021E-03
(PID.TID 0000.0001) %MON advcfl_W_hf_max              =   5.6857635563021E-03
(PID.TID 0000.0001) %MON pe_b_mean                    =  -6.8219864715633E-01
(PID.TID 0000.0001) %MON ke_max                       =   2.2340398291161E-04
(PID.TID 0000.0001) %MON ke_mean                      =   2.7473071217624E-07
(PID.TID 0000.0001) %MON ke_vol                       =   4.6183022780196E+12
(PID.TID 0000.0001) // =======================================================
(PID.TID 0000.0001) // End MONITOR dynamic field statistics
(PID.TID 0000.0001) // =======================================================
(PID.TID 0000.0001) // =======================================================
(PID.TID 0000.0001) // Begin OBCS MONITOR field statistics
(PID.TID 0000.0001) // =======================================================
(PID.TID 0000.0001) %MON obc_N_vVel_max               =  -2.6416931140320E-08
(PID.TID 0000.0001) %MON obc_N_vVel_min               =  -2.6416931140321E-08
(PID.TID 0000.0001) %MON obc_N_vVel_mean              =  -2.6416931140321E-08
(PID.TID 0000.0001) %MON obc_N_vVel_sd                =  -4.0626336618882E-29
(PID.TID 0000.0001) %MON obc_N_vVel_Int               =  -1.7435174552612E+00
(PID.TID 0000.0001) // =======================================================
(PID.TID 0000.0001) // End OBCS MONITOR field statistics
(PID.TID 0000.0001) // =======================================================
 cg2d: Sum(rhs),rhsMax =   3.00946454907962E+00  4.53045212440617E+02
(PID.TID 0000.0001)      cg2d_init_res =   2.99395147788412E-06
(PID.TID 0000.0001)      cg2d_iters(min,last) =      -1      74
(PID.TID 0000.0001)      cg2d_last_res =   9.27226875244357E-12
(PID.TID 0000.0001) // =======================================================
(PID.TID 0000.0001) // Begin MONITOR dynamic field statistics
(PID.TID 0000.0001) // =======================================================
(PID.TID 0000.0001) %MON time_tsnumber                =                  1065
(PID.TID 0000.0001) %MON time_secondsf                =   1.0650000000000E+05
(PID.TID 0000.0001) %MON dynstat_eta_max              =   5.7984165248291E+00
(PID.TID 0000.0001) %MON dynstat_eta_min              =  -1.4172364779663E+01
(PID.TID 0000.0001) %MON dynstat_eta_mean             =  -2.5248583443894E+00
(PID.TID 0000.0001) %MON dynstat_eta_sd               =   4.9413034152940E+00
(PID.TID 0000.0001) %MON dynstat_eta_del2             =   1.9058536638465E-01
(PID.TID 0000.0001) %MON dynstat_uvel_max             =   5.2413929679647E-03
(PID.TID 0000.0001) %MON dynstat_uvel_min             =  -2.4679850343960E-02
(PID.TID 0000.0001) %MON dynstat_uvel_mean            =   9.8304156198316E-10
(PID.TID 0000.0001) %MON dynstat_uvel_sd              =   6.6746410339571E-04
(PID.TID 0000.0001) %MON dynstat_uvel_del2            =   1.0274570961076E-06
(PID.TID 0000.0001) %MON dynstat_vvel_max             =   1.7949688032117E-02
(PID.TID 0000.0001) %MON dynstat_vvel_min             =  -6.5637456422873E-03
(PID.TID 0000.0001) %MON dynstat_vvel_mean            =  -2.9313959181580E-08
(PID.TID 0000.0001) %MON dynstat_vvel_sd              =   3.3917627558422E-04
(PID.TID 0000.0001) %MON dynstat_vvel_del2            =   8.9152892076503E-07
(PID.TID 0000.0001) %MON dynstat_wvel_max             =   1.0046516121050E-03
(PID.TID 0000.0001) %MON dynstat_wvel_min             =  -1.1406082245952E-03
(PID.TID 0000.0001) %MON dynstat_wvel_mean            =   1.5639815416776E-10
(PID.TID 0000.0001) %MON dynstat_wvel_sd              =   1.6868393368184E-05
(PID.TID 0000.0001) %MON dynstat_wvel_del2            =   7.1086871339252E-08
(PID.TID 0000.0001) %MON dynstat_theta_max            =   1.2000000000000E+00
(PID.TID 0000.0001) %MON dynstat_theta_min            =  -1.0000000000000E+00
(PID.TID 0000.0001) %MON dynstat_theta_mean           =   5.6518955577559E-01
(PID.TID 0000.0001) %MON dynstat_theta_sd             =   8.4896542255150E-01
(PID.TID 0000.0001) %MON dynstat_theta_del2           =   2.5062281751401E-06
(PID.TID 0000.0001) %MON dynstat_salt_max             =   3.4700000000000E+01
(PID.TID 0000.0001) %MON dynstat_salt_min             =   3.4000000000000E+01
(PID.TID 0000.0001) %MON dynstat_salt_mean            =   3.4497989777639E+01
(PID.TID 0000.0001) %MON dynstat_salt_sd              =   2.7012242971730E-01
(PID.TID 0000.0001) %MON dynstat_salt_del2            =   9.9036430335676E-07
(PID.TID 0000.0001) %MON advcfl_uvel_max              =   2.4679850343960E-03
(PID.TID 0000.0001) %MON advcfl_vvel_max              =   1.7949688032117E-03
(PID.TID 0000.0001) %MON advcfl_wvel_max              =   5.7030411229759E-03
(PID.TID 0000.0001) %MON advcfl_W_hf_max              =   5.7030411229759E-03
(PID.TID 0000.0001) %MON pe_b_mean                    =  -6.8219707137841E-01
(PID.TID 0000.0001) %MON ke_max                       =   2.2470553711880E-04
(PID.TID 0000.0001) %MON ke_mean                      =   2.7608526321701E-07
(PID.TID 0000.0001) %MON ke_vol                       =   4.6183023096410E+12
(PID.TID 0000.0001) // =======================================================
(PID.TID 0000.0001) // End MONITOR dynamic field statistics
(PID.TID 0000.0001) // =======================================================
(PID.TID 0000.0001) // =======================================================
(PID.TID 0000.0001) // Begin OBCS MONITOR field statistics
(PID.TID 0000.0001) // =======================================================
(PID.TID 0000.0001) %MON obc_N_vVel_max               =  -4.3614182294071E-08
(PID.TID 0000.0001) %MON obc_N_vVel_min               =  -4.3614182294071E-08
(PID.TID 0000.0001) %MON obc_N_vVel_mean              =  -4.3614182294071E-08
(PID.TID 0000.0001) %MON obc_N_vVel_sd                =  -3.5104310282335E-29
(PID.TID 0000.0001) %MON obc_N_vVel_Int               =  -2.8785360314087E+00
(PID.TID 0000.0001) // =======================================================
(PID.TID 0000.0001) // End OBCS MONITOR field statistics
(PID.TID 0000.0001) // =======================================================
 cg2d: Sum(rhs),rhsMax =   3.00945827090203E+00  4.53045192008796E+02
(PID.TID 0000.0001)      cg2d_init_res =   3.00231878946261E-06
(PID.TID 0000.0001)      cg2d_iters(min,last) =      -1      74
(PID.TID 0000.0001)      cg2d_last_res =   9.29772448814948E-12
(PID.TID 0000.0001) // =======================================================
(PID.TID 0000.0001) // Begin MONITOR dynamic field statistics
(PID.TID 0000.0001) // =======================================================
(PID.TID 0000.0001) %MON time_tsnumber                =                  1066
(PID.TID 0000.0001) %MON time_secondsf                =   1.0660000000000E+05
(PID.TID 0000.0001) %MON dynstat_eta_max              =   5.7984193915539E+00
(PID.TID 0000.0001) %MON dynstat_eta_min              =  -1.4172353236610E+01
(PID.TID 0000.0001) %MON dynstat_eta_mean             =  -2.5248529633024E+00
(PID.TID 0000.0001) %MON dynstat_eta_sd               =   4.9413018327379E+00
(PID.TID 0000.0001) %MON dynstat_eta_del2             =   1.9058538135481E-01
(PID.TID 0000.0001) %MON dynstat_uvel_max             =   5.2545506390365E-03
(PID.TID 0000.0001) %MON dynstat_uvel_min             =  -2.4742989822919E-02
(PID.TID 0000.0001) %MON dynstat_uvel_mean            =   9.8441432582590E-10
(PID.TID 0000.0001) %MON dynstat_uvel_sd              =   6.6917471667495E-04
(PID.TID 0000.0001) %MON dynstat_uvel_del2            =   1.0299734343443E-06
(PID.TID 0000.0001) %MON dynstat_vvel_max             =   1.7986728933156E-02
(PID.TID 0000.0001) %MON dynstat_vvel_min             =  -6.5782573547057E-03
(PID.TID 0000.0001) %MON dynstat_vvel_mean            =  -4.6242448804449E-08
(PID.TID 0000.0001) %MON dynstat_vvel_sd              =   3.3987882081091E-04
(PID.TID 0000.0001) %MON dynstat_vvel_del2            =   8.9347952004335E-07
(PID.TID 0000.0001) %MON dynstat_wvel_max             =   1.0070976656668E-03
(PID.TID 0000.0001) %MON dynstat_wvel_min             =  -1.1440717525643E-03
(PID.TID 0000.0001) %MON dynstat_wvel_mean            =   1.6530191702244E-10
(PID.TID 0000.0001) %MON dynstat_wvel_sd              =   1.6928396211896E-05
(PID.TID 0000.0001) %MON dynstat_wvel_del2            =   7.1333345913470E-08
(PID.TID 0000.0001) %MON dynstat_theta_max            =   1.2000000000000E+00
(PID.TID 0000.0001) %MON dynstat_theta_min            =  -1.0000000000000E+00
(PID.TID 0000.0001) %MON dynstat_theta_mean           =   5.6518896448648E-01
(PID.TID 0000.0001) %MON dynstat_theta_sd             =   8.4896516908313E-01
(PID.TID 0000.0001) %MON dynstat_theta_del2           =   2.5114786423998E-06
(PID.TID 0000.0001) %MON dynstat_salt_max             =   3.4700000000000E+01
(PID.TID 0000.0001) %MON dynstat_salt_min             =   3.4000000000000E+01
(PID.TID 0000.0001) %MON dynstat_salt_mean            =   3.4497989541680E+01
(PID.TID 0000.0001) %MON dynstat_salt_sd              =   2.7012233452862E-01
(PID.TID 0000.0001) %MON dynstat_salt_del2            =   9.9245953665884E-07
(PID.TID 0000.0001) %MON advcfl_uvel_max              =   2.4742989822919E-03
(PID.TID 0000.0001) %MON advcfl_vvel_max              =   1.7986728933156E-03
(PID.TID 0000.0001) %MON advcfl_wvel_max              =   5.7203587628217E-03
(PID.TID 0000.0001) %MON advcfl_W_hf_max              =   5.7203587628217E-03
(PID.TID 0000.0001) %MON pe_b_mean                    =  -6.8219548894224E-01
(PID.TID 0000.0001) %MON ke_max                       =   2.2601359841303E-04
(PID.TID 0000.0001) %MON ke_mean                      =   2.7744553527426E-07
(PID.TID 0000.0001) %MON ke_vol                       =   4.6183023414343E+12
(PID.TID 0000.0001) // =======================================================
(PID.TID 0000.0001) // End MONITOR dynamic field statistics
(PID.TID 0000.0001) // =======================================================
(PID.TID 0000.0001) // =======================================================
(PID.TID 0000.0001) // Begin OBCS MONITOR field statistics
(PID.TID 0000.0001) // =======================================================
(PID.TID 0000.0001) %MON obc_N_vVel_max               =  -6.0556222231790E-08
(PID.TID 0000.0001) %MON obc_N_vVel_min               =  -6.0556222231791E-08
(PID.TID 0000.0001) %MON obc_N_vVel_mean              =  -6.0556222231790E-08
(PID.TID 0000.0001) %MON obc_N_vVel_sd                =   1.4782234971283E-14
(PID.TID 0000.0001) %MON obc_N_vVel_Int               =  -3.9967106672981E+00
(PID.TID 0000.0001) // =======================================================
(PID.TID 0000.0001) // End OBCS MONITOR field statistics
(PID.TID 0000.0001) // =======================================================
 cg2d: Sum(rhs),rhsMax =   3.00945195848590E+00  4.53045171673089E+02
(PID.TID 0000.0001)      cg2d_init_res =   3.01031508026879E-06
(PID.TID 0000.0001)      cg2d_iters(min,last) =      -1      74
(PID.TID 0000.0001)      cg2d_last_res =   9.32301309848086E-12
(PID.TID 0000.0001) // =======================================================
(PID.TID 0000.0001) // Begin MONITOR dynamic field statistics
(PID.TID 0000.0001) // =======================================================
(PID.TID 0000.0001) %MON time_tsnumber                =                  1067
(PID.TID 0000.0001) %MON time_secondsf                =   1.0670000000000E+05
(PID.TID 0000.0001) %MON dynstat_eta_max              =   5.7984222866443E+00
(PID.TID 0000.0001) %MON dynstat_eta_min              =  -1.4172341639377E+01
(PID.TID 0000.0001) %MON dynstat_eta_mean             =  -2.5248475540262E+00
(PID.TID 0000.0001) %MON dynstat_eta_sd               =   4.9413002419265E+00
(PID.TID 0000.0001) %MON dynstat_eta_del2             =   1.9058539634886E-01
(PID.TID 0000.0001) %MON dynstat_uvel_max             =   5.2677388206002E-03
(PID.TID 0000.0001) %MON dynstat_uvel_min             =  -2.4806220067222E-02
(PID.TID 0000.0001) %MON dynstat_uvel_mean            =   9.7800905226950E-10
(PID.TID 0000.0001) %MON dynstat_uvel_sd              =   6.7088881042856E-04
(PID.TID 0000.0001) %MON dynstat_uvel_del2            =   1.0324960570276E-06
(PID.TID 0000.0001) %MON dynstat_vvel_max             =   1.8023802249915E-02
(PID.TID 0000.0001) %MON dynstat_vvel_min             =  -6.5927927048222E-03
(PID.TID 0000.0001) %MON dynstat_vvel_mean            =  -6.2594097637268E-08
(PID.TID 0000.0001) %MON dynstat_vvel_sd              =   3.4058127177133E-04
(PID.TID 0000.0001) %MON dynstat_vvel_del2            =   8.9542355100392E-07
(PID.TID 0000.0001) %MON dynstat_wvel_max             =   1.0095474752884E-03
(PID.TID 0000.0001) %MON dynstat_wvel_min             =  -1.1475432928117E-03
(PID.TID 0000.0001) %MON dynstat_wvel_mean            =   1.7540977880180E-10
(PID.TID 0000.0001) %MON dynstat_wvel_sd              =   1.6984236752989E-05
(PID.TID 0000.0001) %MON dynstat_wvel_del2            =   7.1556061128115E-08
(PID.TID 0000.0001) %MON dynstat_theta_max            =   1.2000000000000E+00
(PID.TID 0000.0001) %MON dynstat_theta_min            =  -1.0000000000000E+00
(PID.TID 0000.0001) %MON dynstat_theta_mean           =   5.6518837209559E-01
(PID.TID 0000.0001) %MON dynstat_theta_sd             =   8.4896491506646E-01
(PID.TID 0000.0001) %MON dynstat_theta_del2           =   2.5167524312176E-06
(PID.TID 0000.0001) %MON dynstat_salt_max             =   3.4700000000000E+01
(PID.TID 0000.0001) %MON dynstat_salt_min             =   3.4000000000000E+01
(PID.TID 0000.0001) %MON dynstat_salt_mean            =   3.4497989305282E+01
(PID.TID 0000.0001) %MON dynstat_salt_sd              =   2.7012223912774E-01
(PID.TID 0000.0001) %MON dynstat_salt_del2            =   9.9456217850169E-07
(PID.TID 0000.0001) %MON advcfl_uvel_max              =   2.4806220067222E-03
(PID.TID 0000.0001) %MON advcfl_vvel_max              =   1.8023802249915E-03
(PID.TID 0000.0001) %MON advcfl_wvel_max              =   5.7377164640586E-03
(PID.TID 0000.0001) %MON advcfl_W_hf_max              =   5.7377164640586E-03
(PID.TID 0000.0001) %MON pe_b_mean                    =  -6.8219389998125E-01
(PID.TID 0000.0001) %MON ke_max                       =   2.2732819333035E-04
(PID.TID 0000.0001) %MON ke_mean                      =   2.7881143133407E-07
(PID.TID 0000.0001) %MON ke_vol                       =   4.6183023733980E+12
(PID.TID 0000.0001) // =======================================================
(PID.TID 0000.0001) // End MONITOR dynamic field statistics
(PID.TID 0000.0001) // =======================================================
(PID.TID 0000.0001) // =======================================================
(PID.TID 0000.0001) // Begin OBCS MONITOR field statistics
(PID.TID 0000.0001) // =======================================================
(PID.TID 0000.0001) %MON obc_N_vVel_max               =  -7.7049605557442E-08
(PID.TID 0000.0001) %MON obc_N_vVel_min               =  -7.7049605557443E-08
(PID.TID 0000.0001) %MON obc_N_vVel_mean              =  -7.7049605557442E-08
(PID.TID 0000.0001) %MON obc_N_vVel_sd                =   9.4414661091366E-15
(PID.TID 0000.0001) %MON obc_N_vVel_Int               =  -5.0852739667911E+00
(PID.TID 0000.0001) // =======================================================
(PID.TID 0000.0001) // End OBCS MONITOR field statistics
(PID.TID 0000.0001) // =======================================================
 cg2d: Sum(rhs),rhsMax =   3.00944561208100E+00  4.53045151521200E+02
(PID.TID 0000.0001)      cg2d_init_res =   3.01789034941233E-06
(PID.TID 0000.0001)      cg2d_iters(min,last) =      -1      74
(PID.TID 0000.0001)      cg2d_last_res =   9.34819747020205E-12
(PID.TID 0000.0001) // =======================================================
(PID.TID 0000.0001) // Begin MONITOR dynamic field statistics
(PID.TID 0000.0001) // =======================================================
(PID.TID 0000.0001) %MON time_tsnumber                =                  1068
(PID.TID 0000.0001) %MON time_secondsf                =   1.0680000000000E+05
(PID.TID 0000.0001) %MON dynstat_eta_max              =   5.7984252086454E+00
(PID.TID 0000.0001) %MON dynstat_eta_min              =  -1.4172329989542E+01
(PID.TID 0000.0001) %MON dynstat_eta_mean             =  -2.5248421172594E+00
(PID.TID 0000.0001) %MON dynstat_eta_sd               =   4.9412986433069E+00
(PID.TID 0000.0001) %MON dynstat_eta_del2             =   1.9058541136986E-01
(PID.TID 0000.0001) %MON dynstat_uvel_max             =   5.2809575645405E-03
(PID.TID 0000.0001) %MON dynstat_uvel_min             =  -2.4869540894583E-02
(PID.TID 0000.0001) %MON dynstat_uvel_mean            =   9.6398446736386E-10
(PID.TID 0000.0001) %MON dynstat_uvel_sd              =   6.7260639288019E-04
(PID.TID 0000.0001) %MON dynstat_uvel_del2            =   1.0350249739645E-06
(PID.TID 0000.0001) %MON dynstat_vvel_max             =   1.8060907904081E-02
(PID.TID 0000.0001) %MON dynstat_vvel_min             =  -6.6073516711382E-03
(PID.TID 0000.0001) %MON dynstat_vvel_mean            =  -7.8178320427286E-08
(PID.TID 0000.0001) %MON dynstat_vvel_sd              =   3.4128333454441E-04
(PID.TID 0000.0001) %MON dynstat_vvel_del2            =   8.9735982531461E-07
(PID.TID 0000.0001) %MON dynstat_wvel_max             =   1.0120010393718E-03
(PID.TID 0000.0001) %MON dynstat_wvel_min             =  -1.1510228428009E-03
(PID.TID 0000.0001) %MON dynstat_wvel_mean            =   1.8662504724476E-10
(PID.TID 0000.0001) %MON dynstat_wvel_sd              =   1.7035048975428E-05
(PID.TID 0000.0001) %MON dynstat_wvel_del2            =   7.1752224189312E-08
(PID.TID 0000.0001) %MON dynstat_theta_max            =   1.2000000000000E+00
(PID.TID 0000.0001) %MON dynstat_theta_min            =  -1.0000000000000E+00
(PID.TID 0000.0001) %MON dynstat_theta_mean           =   5.6518777860177E-01
(PID.TID 0000.0001) %MON dynstat_theta_sd             =   8.4896466050452E-01
(PID.TID 0000.0001) %MON dynstat_theta_del2           =   2.5220510344970E-06
(PID.TID 0000.0001) %MON dynstat_salt_max             =   3.4700000000000E+01
(PID.TID 0000.0001) %MON dynstat_salt_min             =   3.4000000000000E+01
(PID.TID 0000.0001) %MON dynstat_salt_mean            =   3.4497989068442E+01
(PID.TID 0000.0001) %MON dynstat_salt_sd              =   2.7012214351567E-01
(PID.TID 0000.0001) %MON dynstat_salt_del2            =   9.9667258852919E-07
(PID.TID 0000.0001) %MON advcfl_uvel_max              =   2.4869540894583E-03
(PID.TID 0000.0001) %MON advcfl_vvel_max              =   1.8060907904081E-03
(PID.TID 0000.0001) %MON advcfl_wvel_max              =   5.7551142140047E-03
(PID.TID 0000.0001) %MON advcfl_W_hf_max              =   5.7551142140047E-03
(PID.TID 0000.0001) %MON pe_b_mean                    =  -6.8219230466965E-01
(PID.TID 0000.0001) %MON ke_max                       =   2.2864934846920E-04
(PID.TID 0000.0001) %MON ke_mean                      =   2.8018287383623E-07
(PID.TID 0000.0001) %MON ke_vol                       =   4.6183024055291E+12
(PID.TID 0000.0001) // =======================================================
(PID.TID 0000.0001) // End MONITOR dynamic field statistics
(PID.TID 0000.0001) // =======================================================
(PID.TID 0000.0001) // =======================================================
(PID.TID 0000.0001) // Begin OBCS MONITOR field statistics
(PID.TID 0000.0001) // =======================================================
(PID.TID 0000.0001) %MON obc_N_vVel_max               =  -9.2904216559915E-08
(PID.TID 0000.0001) %MON obc_N_vVel_min               =  -9.2904216559917E-08
(PID.TID 0000.0001) %MON obc_N_vVel_mean              =  -9.2904216559917E-08
(PID.TID 0000.0001) %MON obc_N_vVel_sd                =  -5.9006795710532E-28
(PID.TID 0000.0001) %MON obc_N_vVel_Int               =  -6.1316782929546E+00
(PID.TID 0000.0001) // =======================================================
(PID.TID 0000.0001) // End OBCS MONITOR field statistics
(PID.TID 0000.0001) // =======================================================
 cg2d: Sum(rhs),rhsMax =   3.00943923219182E+00  4.53045131639258E+02
(PID.TID 0000.0001)      cg2d_init_res =   3.02501156420645E-06
(PID.TID 0000.0001)      cg2d_iters(min,last) =      -1      74
(PID.TID 0000.0001)      cg2d_last_res =   9.37323173346844E-12
(PID.TID 0000.0001) // =======================================================
(PID.TID 0000.0001) // Begin MONITOR dynamic field statistics
(PID.TID 0000.0001) // =======================================================
(PID.TID 0000.0001) %MON time_tsnumber                =                  1069
(PID.TID 0000.0001) %MON time_secondsf                =   1.0690000000000E+05
(PID.TID 0000.0001) %MON dynstat_eta_max              =   5.7984281557843E+00
(PID.TID 0000.0001) %MON dynstat_eta_min              =  -1.4172318289052E+01
(PID.TID 0000.0001) %MON dynstat_eta_mean             =  -2.5248366539050E+00
(PID.TID 0000.0001) %MON dynstat_eta_sd               =   4.9412970373877E+00
(PID.TID 0000.0001) %MON dynstat_eta_del2             =   1.9058542642113E-01
(PID.TID 0000.0001) %MON dynstat_uvel_max             =   5.2942069227848E-03
(PID.TID 0000.0001) %MON dynstat_uvel_min             =  -2.4932952120608E-02
(PID.TID 0000.0001) %MON dynstat_uvel_mean            =   9.4258814069827E-10
(PID.TID 0000.0001) %MON dynstat_uvel_sd              =   6.7432747206517E-04
(PID.TID 0000.0001) %MON dynstat_uvel_del2            =   1.0375601941113E-06
(PID.TID 0000.0001) %MON dynstat_vvel_max             =   1.8098045817029E-02
(PID.TID 0000.0001) %MON dynstat_vvel_min             =  -6.6219342323937E-03
(PID.TID 0000.0001) %MON dynstat_vvel_mean            =  -9.2811515610866E-08
(PID.TID 0000.0001) %MON dynstat_vvel_sd              =   3.4198478739323E-04
(PID.TID 0000.0001) %MON dynstat_vvel_del2            =   8.9928771680398E-07
(PID.TID 0000.0001) %MON dynstat_wvel_max             =   1.0144583562743E-03
(PID.TID 0000.0001) %MON dynstat_wvel_min             =  -1.1545103998535E-03
(PID.TID 0000.0001) %MON dynstat_wvel_mean            =   1.9883730698989E-10
(PID.TID 0000.0001) %MON dynstat_wvel_sd              =   1.7080213750196E-05
(PID.TID 0000.0001) %MON dynstat_wvel_del2            =   7.1920460496918E-08
(PID.TID 0000.0001) %MON dynstat_theta_max            =   1.2000000000000E+00
(PID.TID 0000.0001) %MON dynstat_theta_min            =  -1.0000000000000E+00
(PID.TID 0000.0001) %MON dynstat_theta_mean           =   5.6518718400410E-01
(PID.TID 0000.0001) %MON dynstat_theta_sd             =   8.4896440539981E-01
(PID.TID 0000.0001) %MON dynstat_theta_del2           =   2.5273753016400E-06
(PID.TID 0000.0001) %MON dynstat_salt_max             =   3.4700000000000E+01
(PID.TID 0000.0001) %MON dynstat_salt_min             =   3.4000000000000E+01
(PID.TID 0000.0001) %MON dynstat_salt_mean            =   3.4497988831161E+01
(PID.TID 0000.0001) %MON dynstat_salt_sd              =   2.7012204769326E-01
(PID.TID 0000.0001) %MON dynstat_salt_del2            =   9.9879097681253E-07
(PID.TID 0000.0001) %MON advcfl_uvel_max              =   2.4932952120608E-03
(PID.TID 0000.0001) %MON advcfl_vvel_max              =   1.8098045817029E-03
(PID.TID 0000.0001) %MON advcfl_wvel_max              =   5.7725519992677E-03
(PID.TID 0000.0001) %MON advcfl_W_hf_max              =   5.7725519992677E-03
(PID.TID 0000.0001) %MON pe_b_mean                    =  -6.8219070322064E-01
(PID.TID 0000.0001) %MON ke_max                       =   2.2997709049556E-04
(PID.TID 0000.0001) %MON ke_mean                      =   2.8155980903748E-07
(PID.TID 0000.0001) %MON ke_vol                       =   4.6183024378235E+12
(PID.TID 0000.0001) // =======================================================
(PID.TID 0000.0001) // End MONITOR dynamic field statistics
(PID.TID 0000.0001) // =======================================================
(PID.TID 0000.0001) // =======================================================
(PID.TID 0000.0001) // Begin OBCS MONITOR field statistics
(PID.TID 0000.0001) // =======================================================
(PID.TID 0000.0001) %MON obc_N_vVel_max               =  -1.0793547431590E-07
(PID.TID 0000.0001) %MON obc_N_vVel_min               =  -1.0793547431591E-07
(PID.TID 0000.0001) %MON obc_N_vVel_mean              =  -1.0793547431591E-07
(PID.TID 0000.0001) %MON obc_N_vVel_sd                =  -7.7466140892703E-28
(PID.TID 0000.0001) %MON obc_N_vVel_Int               =  -7.1237413048498E+00
(PID.TID 0000.0001) // =======================================================
(PID.TID 0000.0001) // End OBCS MONITOR field statistics
(PID.TID 0000.0001) // =======================================================
 cg2d: Sum(rhs),rhsMax =   3.00943281957201E+00  4.53045112110983E+02
(PID.TID 0000.0001)      cg2d_init_res =   3.03164865922822E-06
(PID.TID 0000.0001)      cg2d_iters(min,last) =      -1      74
(PID.TID 0000.0001)      cg2d_last_res =   9.39806167267688E-12
(PID.TID 0000.0001) // =======================================================
(PID.TID 0000.0001) // Begin MONITOR dynamic field statistics
(PID.TID 0000.0001) // =======================================================
(PID.TID 0000.0001) %MON time_tsnumber                =                  1070
(PID.TID 0000.0001) %MON time_secondsf                =   1.0700000000000E+05
(PID.TID 0000.0001) %MON dynstat_eta_max              =   5.7984311259773E+00
(PID.TID 0000.0001) %MON dynstat_eta_min              =  -1.4172306540187E+01
(PID.TID 0000.0001) %MON dynstat_eta_mean             =  -2.5248311650620E+00
(PID.TID 0000.0001) %MON dynstat_eta_sd               =   4.9412954247335E+00
(PID.TID 0000.0001) %MON dynstat_eta_del2             =   1.9058544150601E-01
(PID.TID 0000.0001) %MON dynstat_uvel_max             =   5.3074869471166E-03
(PID.TID 0000.0001) %MON dynstat_uvel_min             =  -2.4996453558607E-02
(PID.TID 0000.0001) %MON dynstat_uvel_mean            =   9.1415562639233E-10
(PID.TID 0000.0001) %MON dynstat_uvel_sd              =   6.7605205576434E-04
(PID.TID 0000.0001) %MON dynstat_uvel_del2            =   1.0401017237454E-06
(PID.TID 0000.0001) %MON dynstat_vvel_max             =   1.8135215909094E-02
(PID.TID 0000.0001) %MON dynstat_vvel_min             =  -6.6365403676398E-03
(PID.TID 0000.0001) %MON dynstat_vvel_mean            =  -1.0631926987133E-07
(PID.TID 0000.0001) %MON dynstat_vvel_sd              =   3.4268548938332E-04
(PID.TID 0000.0001) %MON dynstat_vvel_del2            =   9.0120716093152E-07
(PID.TID 0000.0001) %MON dynstat_wvel_max             =   1.0169194243696E-03
(PID.TID 0000.0001) %MON dynstat_wvel_min             =  -1.1580059610948E-03
(PID.TID 0000.0001) %MON dynstat_wvel_mean            =   2.1192383268828E-10
(PID.TID 0000.0001) %MON dynstat_wvel_sd              =   1.7119374832111E-05
(PID.TID 0000.0001) %MON dynstat_wvel_del2            =   7.2060738554011E-08
(PID.TID 0000.0001) %MON dynstat_theta_max            =   1.2000000000000E+00
(PID.TID 0000.0001) %MON dynstat_theta_min            =  -1.0000000000000E+00
(PID.TID 0000.0001) %MON dynstat_theta_mean           =   5.6518658830182E-01
(PID.TID 0000.0001) %MON dynstat_theta_sd             =   8.4896414975421E-01
(PID.TID 0000.0001) %MON dynstat_theta_del2           =   2.5327245564906E-06
(PID.TID 0000.0001) %MON dynstat_salt_max             =   3.4700000000000E+01
(PID.TID 0000.0001) %MON dynstat_salt_min             =   3.4000000000000E+01
(PID.TID 0000.0001) %MON dynstat_salt_mean            =   3.4497988593438E+01
(PID.TID 0000.0001) %MON dynstat_salt_sd              =   2.7012195166081E-01
(PID.TID 0000.0001) %MON dynstat_salt_del2            =   1.0009170223592E-06
(PID.TID 0000.0001) %MON advcfl_uvel_max              =   2.4996453558607E-03
(PID.TID 0000.0001) %MON advcfl_vvel_max              =   1.8135215909094E-03
(PID.TID 0000.0001) %MON advcfl_wvel_max              =   5.7900298054738E-03
(PID.TID 0000.0001) %MON advcfl_W_hf_max              =   5.7900298054738E-03
(PID.TID 0000.0001) %MON pe_b_mean                    =  -6.8218909588418E-01
(PID.TID 0000.0001) %MON ke_max                       =   2.3131144613928E-04
(PID.TID 0000.0001) %MON ke_mean                      =   2.8294221017637E-07
(PID.TID 0000.0001) %MON ke_vol                       =   4.6183024702758E+12
(PID.TID 0000.0001) // =======================================================
(PID.TID 0000.0001) // End MONITOR dynamic field statistics
(PID.TID 0000.0001) // =======================================================
(PID.TID 0000.0001) // =======================================================
(PID.TID 0000.0001) // Begin OBCS MONITOR field statistics
(PID.TID 0000.0001) // =======================================================
(PID.TID 0000.0001) %MON obc_N_vVel_max               =  -1.2196653437320E-07
(PID.TID 0000.0001) %MON obc_N_vVel_min               =  -1.2196653437321E-07
(PID.TID 0000.0001) %MON obc_N_vVel_mean              =  -1.2196653437320E-07
(PID.TID 0000.0001) %MON obc_N_vVel_sd                =   3.0920857315538E-14
(PID.TID 0000.0001) %MON obc_N_vVel_Int               =  -8.0497912686314E+00
(PID.TID 0000.0001) // =======================================================
(PID.TID 0000.0001) // End OBCS MONITOR field statistics
(PID.TID 0000.0001) // =======================================================
 cg2d: Sum(rhs),rhsMax =   3.00942637521622E+00  4.53045093017269E+02
(PID.TID 0000.0001)      cg2d_init_res =   3.03778205501288E-06
(PID.TID 0000.0001)      cg2d_iters(min,last) =      -1      74
(PID.TID 0000.0001)      cg2d_last_res =   9.42244139912171E-12
(PID.TID 0000.0001) // =======================================================
(PID.TID 0000.0001) // Begin MONITOR dynamic field statistics
(PID.TID 0000.0001) // =======================================================
(PID.TID 0000.0001) %MON time_tsnumber                =                  1071
(PID.TID 0000.0001) %MON time_secondsf                =   1.0710000000000E+05
(PID.TID 0000.0001) %MON dynstat_eta_max              =   5.7984341168758E+00
(PID.TID 0000.0001) %MON dynstat_eta_min              =  -1.4172294745535E+01
(PID.TID 0000.0001) %MON dynstat_eta_mean             =  -2.5248256520157E+00
(PID.TID 0000.0001) %MON dynstat_eta_sd               =   4.9412938059611E+00
(PID.TID 0000.0001) %MON dynstat_eta_del2             =   1.9058545662844E-01
(PID.TID 0000.0001) %MON dynstat_uvel_max             =   5.3207976894081E-03
(PID.TID 0000.0001) %MON dynstat_uvel_min             =  -2.5060045019066E-02
(PID.TID 0000.0001) %MON dynstat_uvel_mean            =   8.7910288704246E-10
(PID.TID 0000.0001) %MON dynstat_uvel_sd              =   6.7778015151414E-04
(PID.TID 0000.0001) %MON dynstat_uvel_del2            =   1.0426495708057E-06
(PID.TID 0000.0001) %MON dynstat_vvel_max             =   1.8172418099239E-02
(PID.TID 0000.0001) %MON dynstat_vvel_min             =  -6.6511700566432E-03
(PID.TID 0000.0001) %MON dynstat_vvel_mean            =  -1.1853848553047E-07
(PID.TID 0000.0001) %MON dynstat_vvel_sd              =   3.4338538515229E-04
(PID.TID 0000.0001) %MON dynstat_vvel_del2            =   9.0311862796657E-07
(PID.TID 0000.0001) %MON dynstat_wvel_max             =   1.0193842419877E-03
(PID.TID 0000.0001) %MON dynstat_wvel_min             =  -1.1615095234384E-03
(PID.TID 0000.0001) %MON dynstat_wvel_mean            =   2.2575048426790E-10
(PID.TID 0000.0001) %MON dynstat_wvel_sd              =   1.7152443519800E-05
(PID.TID 0000.0001) %MON dynstat_wvel_del2            =   7.2174236801056E-08
(PID.TID 0000.0001) %MON dynstat_theta_max            =   1.2000000000000E+00
(PID.TID 0000.0001) %MON dynstat_theta_min            =  -1.0000000000000E+00
(PID.TID 0000.0001) %MON dynstat_theta_mean           =   5.6518599149446E-01
(PID.TID 0000.0001) %MON dynstat_theta_sd             =   8.4896389357004E-01
(PID.TID 0000.0001) %MON dynstat_theta_del2           =   2.5380990920082E-06
(PID.TID 0000.0001) %MON dynstat_salt_max             =   3.4700000000000E+01
(PID.TID 0000.0001) %MON dynstat_salt_min             =   3.4000000000000E+01
(PID.TID 0000.0001) %MON dynstat_salt_mean            =   3.4497988355273E+01
(PID.TID 0000.0001) %MON dynstat_salt_sd              =   2.7012185541920E-01
(PID.TID 0000.0001) %MON dynstat_salt_del2            =   1.0030508953417E-06
(PID.TID 0000.0001) %MON advcfl_uvel_max              =   2.5060045019066E-03
(PID.TID 0000.0001) %MON advcfl_vvel_max              =   1.8172418099239E-03
(PID.TID 0000.0001) %MON advcfl_wvel_max              =   5.8075476171922E-03
(PID.TID 0000.0001) %MON advcfl_W_hf_max              =   5.8075476171922E-03
(PID.TID 0000.0001) %MON pe_b_mean                    =  -6.8218748294472E-01
(PID.TID 0000.0001) %MON ke_max                       =   2.3265244218344E-04
(PID.TID 0000.0001) %MON ke_mean                      =   2.8433007940289E-07
(PID.TID 0000.0001) %MON ke_vol                       =   4.6183025028795E+12
(PID.TID 0000.0001) // =======================================================
(PID.TID 0000.0001) // End MONITOR dynamic field statistics
(PID.TID 0000.0001) // =======================================================
(PID.TID 0000.0001) // =======================================================
(PID.TID 0000.0001) // Begin OBCS MONITOR field statistics
(PID.TID 0000.0001) // =======================================================
(PID.TID 0000.0001) %MON obc_N_vVel_max               =  -1.3483041234346E-07
(PID.TID 0000.0001) %MON obc_N_vVel_min               =  -1.3483041234346E-07
(PID.TID 0000.0001) %MON obc_N_vVel_mean              =  -1.3483041234346E-07
(PID.TID 0000.0001) %MON obc_N_vVel_sd                =  -4.4807299416553E-28
(PID.TID 0000.0001) %MON obc_N_vVel_Int               =  -8.8988072146681E+00
(PID.TID 0000.0001) // =======================================================
(PID.TID 0000.0001) // End OBCS MONITOR field statistics
(PID.TID 0000.0001) // =======================================================
 cg2d: Sum(rhs),rhsMax =   3.00941990035086E+00  4.53045074434883E+02
(PID.TID 0000.0001)      cg2d_init_res =   3.04343684711272E-06
(PID.TID 0000.0001)      cg2d_iters(min,last) =      -1      74
(PID.TID 0000.0001)      cg2d_last_res =   9.44687937072807E-12
(PID.TID 0000.0001) // =======================================================
(PID.TID 0000.0001) // Begin MONITOR dynamic field statistics
(PID.TID 0000.0001) // =======================================================
(PID.TID 0000.0001) %MON time_tsnumber                =                  1072
(PID.TID 0000.0001) %MON time_secondsf                =   1.0720000000000E+05
(PID.TID 0000.0001) %MON dynstat_eta_max              =   5.7984371258579E+00
(PID.TID 0000.0001) %MON dynstat_eta_min              =  -1.4172282907980E+01
(PID.TID 0000.0001) %MON dynstat_eta_mean             =  -2.5248201162227E+00
(PID.TID 0000.0001) %MON dynstat_eta_sd               =   4.9412921817253E+00
(PID.TID 0000.0001) %MON dynstat_eta_del2             =   1.9058547179135E-01
(PID.TID 0000.0001) %MON dynstat_uvel_max             =   5.3341392012785E-03
(PID.TID 0000.0001) %MON dynstat_uvel_min             =  -2.5123726311844E-02
(PID.TID 0000.0001) %MON dynstat_uvel_mean            =   8.3792357466530E-10
(PID.TID 0000.0001) %MON dynstat_uvel_sd              =   6.7951176659571E-04
(PID.TID 0000.0001) %MON dynstat_uvel_del2            =   1.0452037387534E-06
(PID.TID 0000.0001) %MON dynstat_vvel_max             =   1.8209652304912E-02
(PID.TID 0000.0001) %MON dynstat_vvel_min             =  -6.6658232801267E-03
(PID.TID 0000.0001) %MON dynstat_vvel_mean            =  -1.2931940464643E-07
(PID.TID 0000.0001) %MON dynstat_vvel_sd              =   3.4408450649085E-04
(PID.TID 0000.0001) %MON dynstat_vvel_del2            =   9.0502307407988E-07
(PID.TID 0000.0001) %MON dynstat_wvel_max             =   1.0218528074182E-03
(PID.TID 0000.0001) %MON dynstat_wvel_min             =  -1.1650210835383E-03
(PID.TID 0000.0001) %MON dynstat_wvel_mean            =   2.4017396020910E-10
(PID.TID 0000.0001) %MON dynstat_wvel_sd              =   1.7179593162552E-05
(PID.TID 0000.0001) %MON dynstat_wvel_del2            =   7.2263171639972E-08
(PID.TID 0000.0001) %MON dynstat_theta_max            =   1.2000000000000E+00
(PID.TID 0000.0001) %MON dynstat_theta_min            =  -1.0000000000000E+00
(PID.TID 0000.0001) %MON dynstat_theta_mean           =   5.6518539358171E-01
(PID.TID 0000.0001) %MON dynstat_theta_sd             =   8.4896363684905E-01
(PID.TID 0000.0001) %MON dynstat_theta_del2           =   2.5434977257986E-06
(PID.TID 0000.0001) %MON dynstat_salt_max             =   3.4700000000000E+01
(PID.TID 0000.0001) %MON dynstat_salt_min             =   3.4000000000000E+01
(PID.TID 0000.0001) %MON dynstat_salt_mean            =   3.4497988116667E+01
(PID.TID 0000.0001) %MON dynstat_salt_sd              =   2.7012175896902E-01
(PID.TID 0000.0001) %MON dynstat_salt_del2            =   1.0051923153685E-06
(PID.TID 0000.0001) %MON advcfl_uvel_max              =   2.5123726311844E-03
(PID.TID 0000.0001) %MON advcfl_vvel_max              =   1.8209652304912E-03
(PID.TID 0000.0001) %MON advcfl_wvel_max              =   5.8251054176915E-03
(PID.TID 0000.0001) %MON advcfl_W_hf_max              =   5.8251054176915E-03
(PID.TID 0000.0001) %MON pe_b_mean                    =  -6.8218586471795E-01
(PID.TID 0000.0001) %MON ke_max                       =   2.3400010551390E-04
(PID.TID 0000.0001) %MON ke_mean                      =   2.8572344861641E-07
(PID.TID 0000.0001) %MON ke_vol                       =   4.6183025356270E+12
(PID.TID 0000.0001) // =======================================================
(PID.TID 0000.0001) // End MONITOR dynamic field statistics
(PID.TID 0000.0001) // =======================================================
(PID.TID 0000.0001) // =======================================================
(PID.TID 0000.0001) // Begin OBCS MONITOR field statistics
(PID.TID 0000.0001) // =======================================================
(PID.TID 0000.0001) %MON obc_N_vVel_max               =  -1.4637204102241E-07
(PID.TID 0000.0001) %MON obc_N_vVel_min               =  -1.4637204102241E-07
(PID.TID 0000.0001) %MON obc_N_vVel_mean              =  -1.4637204102241E-07
(PID.TID 0000.0001) %MON obc_N_vVel_sd                =  -1.2369338993865E-27
(PID.TID 0000.0001) %MON obc_N_vVel_Int               =  -9.6605547074792E+00
(PID.TID 0000.0001) // =======================================================
(PID.TID 0000.0001) // End OBCS MONITOR field statistics
(PID.TID 0000.0001) // =======================================================
 cg2d: Sum(rhs),rhsMax =   3.00941339642225E+00  4.53045056435701E+02
(PID.TID 0000.0001)      cg2d_init_res =   3.04859703999874E-06
(PID.TID 0000.0001)      cg2d_iters(min,last) =      -1      74
(PID.TID 0000.0001)      cg2d_last_res =   9.47090206019531E-12
(PID.TID 0000.0001) // =======================================================
(PID.TID 0000.0001) // Begin MONITOR dynamic field statistics
(PID.TID 0000.0001) // =======================================================
(PID.TID 0000.0001) %MON time_tsnumber                =                  1073
(PID.TID 0000.0001) %MON time_secondsf                =   1.0730000000000E+05
(PID.TID 0000.0001) %MON dynstat_eta_max              =   5.7984401500829E+00
(PID.TID 0000.0001) %MON dynstat_eta_min              =  -1.4172271030671E+01
(PID.TID 0000.0001) %MON dynstat_eta_mean             =  -2.5248145592972E+00
(PID.TID 0000.0001) %MON dynstat_eta_sd               =   4.9412905527207E+00
(PID.TID 0000.0001) %MON dynstat_eta_del2             =   1.9058548699818E-01
(PID.TID 0000.0001) %MON dynstat_uvel_max             =   5.3475115343691E-03
(PID.TID 0000.0001) %MON dynstat_uvel_min             =  -2.5187497244061E-02
(PID.TID 0000.0001) %MON dynstat_uvel_mean            =   7.9119927545527E-10
(PID.TID 0000.0001) %MON dynstat_uvel_sd              =   6.8124690801899E-04
(PID.TID 0000.0001) %MON dynstat_uvel_del2            =   1.0477642291383E-06
(PID.TID 0000.0001) %MON dynstat_vvel_max             =   1.8246918442263E-02
(PID.TID 0000.0001) %MON dynstat_vvel_min             =  -6.6805000198711E-03
(PID.TID 0000.0001) %MON dynstat_vvel_mean            =  -1.3852750770331E-07
(PID.TID 0000.0001) %MON dynstat_vvel_sd              =   3.4478296868900E-04
(PID.TID 0000.0001) %MON dynstat_vvel_del2            =   9.0692187300652E-07
(PID.TID 0000.0001) %MON dynstat_wvel_max             =   1.0243251191682E-03
(PID.TID 0000.0001) %MON dynstat_wvel_min             =  -1.1685406378096E-03
(PID.TID 0000.0001) %MON dynstat_wvel_mean            =   2.5504205307455E-10
(PID.TID 0000.0001) %MON dynstat_wvel_sd              =   1.7201244452803E-05
(PID.TID 0000.0001) %MON dynstat_wvel_del2            =   7.2330603711298E-08
(PID.TID 0000.0001) %MON dynstat_theta_max            =   1.2000000000000E+00
(PID.TID 0000.0001) %MON dynstat_theta_min            =  -1.0000000000000E+00
(PID.TID 0000.0001) %MON dynstat_theta_mean           =   5.6518479456345E-01
(PID.TID 0000.0001) %MON dynstat_theta_sd             =   8.4896337959013E-01
(PID.TID 0000.0001) %MON dynstat_theta_del2           =   2.5489186968927E-06
(PID.TID 0000.0001) %MON dynstat_salt_max             =   3.4700000000000E+01
(PID.TID 0000.0001) %MON dynstat_salt_min             =   3.4000000000000E+01
(PID.TID 0000.0001) %MON dynstat_salt_mean            =   3.4497987877618E+01
(PID.TID 0000.0001) %MON dynstat_salt_sd              =   2.7012166230984E-01
(PID.TID 0000.0001) %MON dynstat_salt_del2            =   1.0073408397965E-06
(PID.TID 0000.0001) %MON advcfl_uvel_max              =   2.5187497244061E-03
(PID.TID 0000.0001) %MON advcfl_vvel_max              =   1.8246918442263E-03
(PID.TID 0000.0001) %MON advcfl_wvel_max              =   5.8427031890479E-03
(PID.TID 0000.0001) %MON advcfl_W_hf_max              =   5.8427031890479E-03
(PID.TID 0000.0001) %MON pe_b_mean                    =  -6.8218424154751E-01
(PID.TID 0000.0001) %MON ke_max                       =   2.3535446306810E-04
(PID.TID 0000.0001) %MON ke_mean                      =   2.8712237850106E-07
(PID.TID 0000.0001) %MON ke_vol                       =   4.6183025685096E+12
(PID.TID 0000.0001) // =======================================================
(PID.TID 0000.0001) // End MONITOR dynamic field statistics
(PID.TID 0000.0001) // =======================================================
(PID.TID 0000.0001) // =======================================================
(PID.TID 0000.0001) // Begin OBCS MONITOR field statistics
(PID.TID 0000.0001) // =======================================================
(PID.TID 0000.0001) %MON obc_N_vVel_max               =  -1.5645020126380E-07
(PID.TID 0000.0001) %MON obc_N_vVel_min               =  -1.5645020126380E-07
(PID.TID 0000.0001) %MON obc_N_vVel_mean              =  -1.5645020126380E-07
(PID.TID 0000.0001) %MON obc_N_vVel_sd                =  -3.4709879829725E-29
(PID.TID 0000.0001) %MON obc_N_vVel_Int               =  -1.0325713283411E+01
(PID.TID 0000.0001) // =======================================================
(PID.TID 0000.0001) // End OBCS MONITOR field statistics
(PID.TID 0000.0001) // =======================================================
 cg2d: Sum(rhs),rhsMax =   3.00940686507882E+00  4.53045039085992E+02
(PID.TID 0000.0001)      cg2d_init_res =   3.05331313460816E-06
(PID.TID 0000.0001)      cg2d_iters(min,last) =      -1      74
(PID.TID 0000.0001)      cg2d_last_res =   9.49483501483919E-12
(PID.TID 0000.0001) // =======================================================
(PID.TID 0000.0001) // Begin MONITOR dynamic field statistics
(PID.TID 0000.0001) // =======================================================
(PID.TID 0000.0001) %MON time_tsnumber                =                  1074
(PID.TID 0000.0001) %MON time_secondsf                =   1.0740000000000E+05
(PID.TID 0000.0001) %MON dynstat_eta_max              =   5.7984431864970E+00
(PID.TID 0000.0001) %MON dynstat_eta_min              =  -1.4172259116963E+01
(PID.TID 0000.0001) %MON dynstat_eta_mean             =  -2.5248089829913E+00
(PID.TID 0000.0001) %MON dynstat_eta_sd               =   4.9412889196700E+00
(PID.TID 0000.0001) %MON dynstat_eta_del2             =   1.9058550225245E-01
(PID.TID 0000.0001) %MON dynstat_uvel_max             =   5.3609147404865E-03
(PID.TID 0000.0001) %MON dynstat_uvel_min             =  -2.5251357619596E-02
(PID.TID 0000.0001) %MON dynstat_uvel_mean            =   7.3957763692525E-10
(PID.TID 0000.0001) %MON dynstat_uvel_sd              =   6.8298558260697E-04
(PID.TID 0000.0001) %MON dynstat_uvel_del2            =   1.0503310437237E-06
(PID.TID 0000.0001) %MON dynstat_vvel_max             =   1.8284216417884E-02
(PID.TID 0000.0001) %MON dynstat_vvel_min             =  -6.6952002586227E-03
(PID.TID 0000.0001) %MON dynstat_vvel_mean            =  -1.4604526892416E-07
(PID.TID 0000.0001) %MON dynstat_vvel_sd              =   3.4548096609377E-04
(PID.TID 0000.0001) %MON dynstat_vvel_del2            =   9.0881674510288E-07
(PID.TID 0000.0001) %MON dynstat_wvel_max             =   1.0268011753472E-03
(PID.TID 0000.0001) %MON dynstat_wvel_min             =  -1.1720681825295E-03
(PID.TID 0000.0001) %MON dynstat_wvel_mean            =   2.7019537339598E-10
(PID.TID 0000.0001) %MON dynstat_wvel_sd              =   1.7218044403930E-05
(PID.TID 0000.0001) %MON dynstat_wvel_del2            =   7.2380256621951E-08
(PID.TID 0000.0001) %MON dynstat_theta_max            =   1.2000000000000E+00
(PID.TID 0000.0001) %MON dynstat_theta_min            =  -1.0000000000000E+00
(PID.TID 0000.0001) %MON dynstat_theta_mean           =   5.6518419443961E-01
(PID.TID 0000.0001) %MON dynstat_theta_sd             =   8.4896312179132E-01
(PID.TID 0000.0001) %MON dynstat_theta_del2           =   2.5543597776214E-06
(PID.TID 0000.0001) %MON dynstat_salt_max             =   3.4700000000000E+01
(PID.TID 0000.0001) %MON dynstat_salt_min             =   3.4000000000000E+01
(PID.TID 0000.0001) %MON dynstat_salt_mean            =   3.4497987638126E+01
(PID.TID 0000.0001) %MON dynstat_salt_sd              =   2.7012156544103E-01
(PID.TID 0000.0001) %MON dynstat_salt_del2            =   1.0094957808478E-06
(PID.TID 0000.0001) %MON advcfl_uvel_max              =   2.5251357619596E-03
(PID.TID 0000.0001) %MON advcfl_vvel_max              =   1.8284216417884E-03
(PID.TID 0000.0001) %MON advcfl_wvel_max              =   5.8603409126473E-03
(PID.TID 0000.0001) %MON advcfl_W_hf_max              =   5.8603409126473E-03
(PID.TID 0000.0001) %MON pe_b_mean                    =  -6.8218261380095E-01
(PID.TID 0000.0001) %MON ke_max                       =   2.3671554182577E-04
(PID.TID 0000.0001) %MON ke_mean                      =   2.8852695733986E-07
(PID.TID 0000.0001) %MON ke_vol                       =   4.6183026015178E+12
(PID.TID 0000.0001) // =======================================================
(PID.TID 0000.0001) // End MONITOR dynamic field statistics
(PID.TID 0000.0001) // =======================================================
(PID.TID 0000.0001) // =======================================================
(PID.TID 0000.0001) // Begin OBCS MONITOR field statistics
(PID.TID 0000.0001) // =======================================================
(PID.TID 0000.0001) %MON obc_N_vVel_max               =  -1.6493930729551E-07
(PID.TID 0000.0001) %MON obc_N_vVel_min               =  -1.6493930729551E-07
(PID.TID 0000.0001) %MON obc_N_vVel_mean              =  -1.6493930729551E-07
(PID.TID 0000.0001) %MON obc_N_vVel_sd                =   3.0145775206728E-14
(PID.TID 0000.0001) %MON obc_N_vVel_Int               =  -1.0885994281504E+01
(PID.TID 0000.0001) // =======================================================
(PID.TID 0000.0001) // End OBCS MONITOR field statistics
(PID.TID 0000.0001) // =======================================================
 cg2d: Sum(rhs),rhsMax =   3.00940030815611E+00  4.53045022445344E+02
(PID.TID 0000.0001)      cg2d_init_res =   3.05758792778383E-06
(PID.TID 0000.0001)      cg2d_iters(min,last) =      -1      74
(PID.TID 0000.0001)      cg2d_last_res =   9.51854836977258E-12
(PID.TID 0000.0001) // =======================================================
(PID.TID 0000.0001) // Begin MONITOR dynamic field statistics
(PID.TID 0000.0001) // =======================================================
(PID.TID 0000.0001) %MON time_tsnumber                =                  1075
(PID.TID 0000.0001) %MON time_secondsf                =   1.0750000000000E+05
(PID.TID 0000.0001) %MON dynstat_eta_max              =   5.7984462319033E+00
(PID.TID 0000.0001) %MON dynstat_eta_min              =  -1.4172247170421E+01
(PID.TID 0000.0001) %MON dynstat_eta_mean             =  -2.5248033891771E+00
(PID.TID 0000.0001) %MON dynstat_eta_sd               =   4.9412872833132E+00
(PID.TID 0000.0001) %MON dynstat_eta_del2             =   1.9058551755736E-01
(PID.TID 0000.0001) %MON dynstat_uvel_max             =   5.3743488714781E-03
(PID.TID 0000.0001) %MON dynstat_uvel_min             =  -2.5315307239999E-02
(PID.TID 0000.0001) %MON dynstat_uvel_mean            =   6.8377674639181E-10
(PID.TID 0000.0001) %MON dynstat_uvel_sd              =   6.8472779701779E-04
(PID.TID 0000.0001) %MON dynstat_uvel_del2            =   1.0529041835730E-06
(PID.TID 0000.0001) %MON dynstat_vvel_max             =   1.8321546144619E-02
(PID.TID 0000.0001) %MON dynstat_vvel_min             =  -6.7099239804405E-03
(PID.TID 0000.0001) %MON dynstat_vvel_mean            =  -1.5177373620551E-07
(PID.TID 0000.0001) %MON dynstat_vvel_sd              =   3.4617876260805E-04
(PID.TID 0000.0001) %MON dynstat_vvel_del2            =   9.1070967250175E-07
(PID.TID 0000.0001) %MON dynstat_wvel_max             =   1.0292809740729E-03
(PID.TID 0000.0001) %MON dynstat_wvel_min             =  -1.1756037136484E-03
(PID.TID 0000.0001) %MON dynstat_wvel_mean            =   2.8546997963580E-10
(PID.TID 0000.0001) %MON dynstat_wvel_sd              =   1.7230838030272E-05
(PID.TID 0000.0001) %MON dynstat_wvel_del2            =   7.2416336448774E-08
(PID.TID 0000.0001) %MON dynstat_theta_max            =   1.2000000000000E+00
(PID.TID 0000.0001) %MON dynstat_theta_min            =  -1.0000000000000E+00
(PID.TID 0000.0001) %MON dynstat_theta_mean           =   5.6518359321021E-01
(PID.TID 0000.0001) %MON dynstat_theta_sd             =   8.4896286345049E-01
(PID.TID 0000.0001) %MON dynstat_theta_del2           =   2.5598183686659E-06
(PID.TID 0000.0001) %MON dynstat_salt_max             =   3.4700000000000E+01
(PID.TID 0000.0001) %MON dynstat_salt_min             =   3.4000000000000E+01
(PID.TID 0000.0001) %MON dynstat_salt_mean            =   3.4497987398192E+01
(PID.TID 0000.0001) %MON dynstat_salt_sd              =   2.7012146836212E-01
(PID.TID 0000.0001) %MON dynstat_salt_del2            =   1.0116564525068E-06
(PID.TID 0000.0001) %MON advcfl_uvel_max              =   2.5315307239999E-03
(PID.TID 0000.0001) %MON advcfl_vvel_max              =   1.8321546144619E-03
(PID.TID 0000.0001) %MON advcfl_wvel_max              =   5.8780185682421E-03
(PID.TID 0000.0001) %MON advcfl_W_hf_max              =   5.8780185682421E-03
(PID.TID 0000.0001) %MON pe_b_mean                    =  -6.8218098186580E-01
(PID.TID 0000.0001) %MON ke_max                       =   2.3808336883639E-04
(PID.TID 0000.0001) %MON ke_mean                      =   2.8993729801724E-07
(PID.TID 0000.0001) %MON ke_vol                       =   4.6183026346410E+12
(PID.TID 0000.0001) // =======================================================
(PID.TID 0000.0001) // End MONITOR dynamic field statistics
(PID.TID 0000.0001) // =======================================================
(PID.TID 0000.0001) // =======================================================
(PID.TID 0000.0001) // Begin OBCS MONITOR field statistics
(PID.TID 0000.0001) // =======================================================
(PID.TID 0000.0001) %MON obc_N_vVel_max               =  -1.7173107531727E-07
(PID.TID 0000.0001) %MON obc_N_vVel_min               =  -1.7173107531728E-07
(PID.TID 0000.0001) %MON obc_N_vVel_mean              =  -1.7173107531727E-07
(PID.TID 0000.0001) %MON obc_N_vVel_sd                =   4.7994518887529E-14
(PID.TID 0000.0001) %MON obc_N_vVel_Int               =  -1.1334250970940E+01
(PID.TID 0000.0001) // =======================================================
(PID.TID 0000.0001) // End OBCS MONITOR field statistics
(PID.TID 0000.0001) // =======================================================
 cg2d: Sum(rhs),rhsMax =   3.00939372765929E+00  4.53045006565960E+02
(PID.TID 0000.0001)      cg2d_init_res =   3.06146043001682E-06
(PID.TID 0000.0001)      cg2d_iters(min,last) =      -1      74
(PID.TID 0000.0001)      cg2d_last_res =   9.54200080367878E-12
(PID.TID 0000.0001) // =======================================================
(PID.TID 0000.0001) // Begin MONITOR dynamic field statistics
(PID.TID 0000.0001) // =======================================================
(PID.TID 0000.0001) %MON time_tsnumber                =                  1076
(PID.TID 0000.0001) %MON time_secondsf                =   1.0760000000000E+05
(PID.TID 0000.0001) %MON dynstat_eta_max              =   5.7984492829506E+00
(PID.TID 0000.0001) %MON dynstat_eta_min              =  -1.4172235194739E+01
(PID.TID 0000.0001) %MON dynstat_eta_mean             =  -2.5247977798277E+00
(PID.TID 0000.0001) %MON dynstat_eta_sd               =   4.9412856444046E+00
(PID.TID 0000.0001) %MON dynstat_eta_del2             =   1.9058553291610E-01
(PID.TID 0000.0001) %MON dynstat_uvel_max             =   5.3878139791843E-03
(PID.TID 0000.0001) %MON dynstat_uvel_min             =  -2.5379345905269E-02
(PID.TID 0000.0001) %MON dynstat_uvel_mean            =   6.2457347786194E-10
(PID.TID 0000.0001) %MON dynstat_uvel_sd              =   6.8647355776223E-04
(PID.TID 0000.0001) %MON dynstat_uvel_del2            =   1.0554836497754E-06
(PID.TID 0000.0001) %MON dynstat_vvel_max             =   1.8358907532344E-02
(PID.TID 0000.0001) %MON dynstat_vvel_min             =  -6.7246711709830E-03
(PID.TID 0000.0001) %MON dynstat_vvel_mean            =  -1.5563391376085E-07
(PID.TID 0000.0001) %MON dynstat_vvel_sd              =   3.4687667960296E-04
(PID.TID 0000.0001) %MON dynstat_vvel_del2            =   9.1260281154130E-07
(PID.TID 0000.0001) %MON dynstat_wvel_max             =   1.0317645136403E-03
(PID.TID 0000.0001) %MON dynstat_wvel_min             =  -1.1791472268270E-03
(PID.TID 0000.0001) %MON dynstat_wvel_mean            =   3.0069859497841E-10
(PID.TID 0000.0001) %MON dynstat_wvel_sd              =   1.7240634910203E-05
(PID.TID 0000.0001) %MON dynstat_wvel_del2            =   7.2443374269310E-08
(PID.TID 0000.0001) %MON dynstat_theta_max            =   1.2000000000000E+00
(PID.TID 0000.0001) %MON dynstat_theta_min            =  -1.0000000000000E+00
(PID.TID 0000.0001) %MON dynstat_theta_mean           =   5.6518299087554E-01
(PID.TID 0000.0001) %MON dynstat_theta_sd             =   8.4896260456362E-01
(PID.TID 0000.0001) %MON dynstat_theta_del2           =   2.5652916426694E-06
(PID.TID 0000.0001) %MON dynstat_salt_max             =   3.4700000000000E+01
(PID.TID 0000.0001) %MON dynstat_salt_min             =   3.4000000000000E+01
(PID.TID 0000.0001) %MON dynstat_salt_mean            =   3.4497987157816E+01
(PID.TID 0000.0001) %MON dynstat_salt_sd              =   2.7012137107181E-01
(PID.TID 0000.0001) %MON dynstat_salt_del2            =   1.0138221175434E-06
(PID.TID 0000.0001) %MON advcfl_uvel_max              =   2.5379345905269E-03
(PID.TID 0000.0001) %MON advcfl_vvel_max              =   1.8358907532344E-03
(PID.TID 0000.0001) %MON advcfl_wvel_max              =   5.8957361341349E-03
(PID.TID 0000.0001) %MON advcfl_W_hf_max              =   5.8957361341349E-03
(PID.TID 0000.0001) %MON pe_b_mean                    =  -6.8217934614550E-01
(PID.TID 0000.0001) %MON ke_max                       =   2.3945797122583E-04
(PID.TID 0000.0001) %MON ke_mean                      =   2.9135353408124E-07
(PID.TID 0000.0001) %MON ke_vol                       =   4.6183026678683E+12
(PID.TID 0000.0001) // =======================================================
(PID.TID 0000.0001) // End MONITOR dynamic field statistics
(PID.TID 0000.0001) // =======================================================
(PID.TID 0000.0001) // =======================================================
(PID.TID 0000.0001) // Begin OBCS MONITOR field statistics
(PID.TID 0000.0001) // =======================================================
(PID.TID 0000.0001) %MON obc_N_vVel_max               =  -1.7673599815289E-07
(PID.TID 0000.0001) %MON obc_N_vVel_min               =  -1.7673599815290E-07
(PID.TID 0000.0001) %MON obc_N_vVel_mean              =  -1.7673599815290E-07
(PID.TID 0000.0001) %MON obc_N_vVel_sd                =  -3.5340968553901E-27
(PID.TID 0000.0001) %MON obc_N_vVel_Int               =  -1.1664575878091E+01
(PID.TID 0000.0001) // =======================================================
(PID.TID 0000.0001) // End OBCS MONITOR field statistics
(PID.TID 0000.0001) // =======================================================
 cg2d: Sum(rhs),rhsMax =   3.00938712573356E+00  4.53044991492554E+02
(PID.TID 0000.0001)      cg2d_init_res =   3.06496790859936E-06
(PID.TID 0000.0001)      cg2d_iters(min,last) =      -1      74
(PID.TID 0000.0001)      cg2d_last_res =   9.56514928171790E-12
(PID.TID 0000.0001) // =======================================================
(PID.TID 0000.0001) // Begin MONITOR dynamic field statistics
(PID.TID 0000.0001) // =======================================================
(PID.TID 0000.0001) %MON time_tsnumber                =                  1077
(PID.TID 0000.0001) %MON time_secondsf                =   1.0770000000000E+05
(PID.TID 0000.0001) %MON dynstat_eta_max              =   5.7984523362095E+00
(PID.TID 0000.0001) %MON dynstat_eta_min              =  -1.4172223193724E+01
(PID.TID 0000.0001) %MON dynstat_eta_mean             =  -2.5247921569921E+00
(PID.TID 0000.0001) %MON dynstat_eta_sd               =   4.9412840037023E+00
(PID.TID 0000.0001) %MON dynstat_eta_del2             =   1.9058554833167E-01
(PID.TID 0000.0001) %MON dynstat_uvel_max             =   5.4013101154542E-03
(PID.TID 0000.0001) %MON dynstat_uvel_min             =  -2.5443473413179E-02
(PID.TID 0000.0001) %MON dynstat_uvel_mean            =   5.6279678334181E-10
(PID.TID 0000.0001) %MON dynstat_uvel_sd              =   6.8822287125102E-04
(PID.TID 0000.0001) %MON dynstat_uvel_del2            =   1.0580694441590E-06
(PID.TID 0000.0001) %MON dynstat_vvel_max             =   1.8396300487219E-02
(PID.TID 0000.0001) %MON dynstat_vvel_min             =  -6.7394418175182E-03
(PID.TID 0000.0001) %MON dynstat_vvel_mean            =  -1.5756792079902E-07
(PID.TID 0000.0001) %MON dynstat_vvel_sd              =   3.4757508189252E-04
(PID.TID 0000.0001) %MON dynstat_vvel_del2            =   9.1449840683448E-07
(PID.TID 0000.0001) %MON dynstat_wvel_max             =   1.0342517922132E-03
(PID.TID 0000.0001) %MON dynstat_wvel_min             =  -1.1826987173754E-03
(PID.TID 0000.0001) %MON dynstat_wvel_mean            =   3.1571230316388E-10
(PID.TID 0000.0001) %MON dynstat_wvel_sd              =   1.7248571339107E-05
(PID.TID 0000.0001) %MON dynstat_wvel_del2            =   7.2466093197824E-08
(PID.TID 0000.0001) %MON dynstat_theta_max            =   1.2000000000000E+00
(PID.TID 0000.0001) %MON dynstat_theta_min            =  -1.0000000000000E+00
(PID.TID 0000.0001) %MON dynstat_theta_mean           =   5.6518238743584E-01
(PID.TID 0000.0001) %MON dynstat_theta_sd             =   8.4896234512864E-01
(PID.TID 0000.0001) %MON dynstat_theta_del2           =   2.5707763881720E-06
(PID.TID 0000.0001) %MON dynstat_salt_max             =   3.4700000000000E+01
(PID.TID 0000.0001) %MON dynstat_salt_min             =   3.4000000000000E+01
(PID.TID 0000.0001) %MON dynstat_salt_mean            =   3.4497986916997E+01
(PID.TID 0000.0001) %MON dynstat_salt_sd              =   2.7012127356954E-01
(PID.TID 0000.0001) %MON dynstat_salt_del2            =   1.0159919175783E-06
(PID.TID 0000.0001) %MON advcfl_uvel_max              =   2.5443473413179E-03
(PID.TID 0000.0001) %MON advcfl_vvel_max              =   1.8396300487219E-03
(PID.TID 0000.0001) %MON advcfl_wvel_max              =   5.9134935868769E-03
(PID.TID 0000.0001) %MON advcfl_W_hf_max              =   5.9134935868769E-03
(PID.TID 0000.0001) %MON pe_b_mean                    =  -6.8217770705436E-01
(PID.TID 0000.0001) %MON ke_max                       =   2.4083937618678E-04
(PID.TID 0000.0001) %MON ke_mean                      =   2.9277581510280E-07
(PID.TID 0000.0001) %MON ke_vol                       =   4.6183027011878E+12
(PID.TID 0000.0001) // =======================================================
(PID.TID 0000.0001) // End MONITOR dynamic field statistics
(PID.TID 0000.0001) // =======================================================
(PID.TID 0000.0001) // =======================================================
(PID.TID 0000.0001) // Begin OBCS MONITOR field statistics
(PID.TID 0000.0001) // =======================================================
(PID.TID 0000.0001) %MON obc_N_vVel_max               =  -1.7988457406667E-07
(PID.TID 0000.0001) %MON obc_N_vVel_min               =  -1.7988457406667E-07
(PID.TID 0000.0001) %MON obc_N_vVel_mean              =  -1.7988457406667E-07
(PID.TID 0000.0001) %MON obc_N_vVel_sd                =  -5.3642541555029E-28
(PID.TID 0000.0001) %MON obc_N_vVel_Int               =  -1.1872381888400E+01
(PID.TID 0000.0001) // =======================================================
(PID.TID 0000.0001) // End OBCS MONITOR field statistics
(PID.TID 0000.0001) // =======================================================
 cg2d: Sum(rhs),rhsMax =   3.00938050464593E+00  4.53044977261270E+02
(PID.TID 0000.0001)      cg2d_init_res =   3.06815171733223E-06
(PID.TID 0000.0001)      cg2d_iters(min,last) =      -1      74
(PID.TID 0000.0001)      cg2d_last_res =   9.58794628996513E-12
(PID.TID 0000.0001) // =======================================================
(PID.TID 0000.0001) // Begin MONITOR dynamic field statistics
(PID.TID 0000.0001) // =======================================================
(PID.TID 0000.0001) %MON time_tsnumber                =                  1078
(PID.TID 0000.0001) %MON time_secondsf                =   1.0780000000000E+05
(PID.TID 0000.0001) %MON dynstat_eta_max              =   5.7984553881979E+00
(PID.TID 0000.0001) %MON dynstat_eta_min              =  -1.4172211171254E+01
(PID.TID 0000.0001) %MON dynstat_eta_mean             =  -2.5247865227737E+00
(PID.TID 0000.0001) %MON dynstat_eta_sd               =   4.9412823619585E+00
(PID.TID 0000.0001) %MON dynstat_eta_del2             =   1.9058556380684E-01
(PID.TID 0000.0001) %MON dynstat_uvel_max             =   5.4148373321761E-03
(PID.TID 0000.0001) %MON dynstat_uvel_min             =  -2.5507689559265E-02
(PID.TID 0000.0001) %MON dynstat_uvel_mean            =   4.9931968126607E-10
(PID.TID 0000.0001) %MON dynstat_uvel_sd              =   6.8997574385044E-04
(PID.TID 0000.0001) %MON dynstat_uvel_del2            =   1.0606615695125E-06
(PID.TID 0000.0001) %MON dynstat_vvel_max             =   1.8433724912739E-02
(PID.TID 0000.0001) %MON dynstat_vvel_min             =  -6.7542359089172E-03
(PID.TID 0000.0001) %MON dynstat_vvel_mean            =  -1.5753991572596E-07
(PID.TID 0000.0001) %MON dynstat_vvel_sd              =   3.4827436208707E-04
(PID.TID 0000.0001) %MON dynstat_vvel_del2            =   9.1639870706026E-07
(PID.TID 0000.0001) %MON dynstat_wvel_max             =   1.0367428079084E-03
(PID.TID 0000.0001) %MON dynstat_wvel_min             =  -1.1862581802869E-03
(PID.TID 0000.0001) %MON dynstat_wvel_mean            =   3.3034329460998E-10
(PID.TID 0000.0001) %MON dynstat_wvel_sd              =   1.7255868676780E-05
(PID.TID 0000.0001) %MON dynstat_wvel_del2            =   7.2489296425942E-08
(PID.TID 0000.0001) %MON dynstat_theta_max            =   1.2000000000000E+00
(PID.TID 0000.0001) %MON dynstat_theta_min            =  -1.0000000000000E+00
(PID.TID 0000.0001) %MON dynstat_theta_mean           =   5.6518178289145E-01
(PID.TID 0000.0001) %MON dynstat_theta_sd             =   8.4896208514309E-01
(PID.TID 0000.0001) %MON dynstat_theta_del2           =   2.5762694448150E-06
(PID.TID 0000.0001) %MON dynstat_salt_max             =   3.4700000000000E+01
(PID.TID 0000.0001) %MON dynstat_salt_min             =   3.4000000000000E+01
(PID.TID 0000.0001) %MON dynstat_salt_mean            =   3.4497986675735E+01
(PID.TID 0000.0001) %MON dynstat_salt_sd              =   2.7012117585459E-01
(PID.TID 0000.0001) %MON dynstat_salt_del2            =   1.0181650202706E-06
(PID.TID 0000.0001) %MON advcfl_uvel_max              =   2.5507689559265E-03
(PID.TID 0000.0001) %MON advcfl_vvel_max              =   1.8433724912739E-03
(PID.TID 0000.0001) %MON advcfl_wvel_max              =   5.9312909014346E-03
(PID.TID 0000.0001) %MON advcfl_W_hf_max              =   5.9312909014346E-03
(PID.TID 0000.0001) %MON pe_b_mean                    =  -6.8217606501304E-01
(PID.TID 0000.0001) %MON ke_max                       =   2.4222761097808E-04
(PID.TID 0000.0001) %MON ke_mean                      =   2.9420430141779E-07
(PID.TID 0000.0001) %MON ke_vol                       =   4.6183027345875E+12
(PID.TID 0000.0001) // =======================================================
(PID.TID 0000.0001) // End MONITOR dynamic field statistics
(PID.TID 0000.0001) // =======================================================
(PID.TID 0000.0001) // =======================================================
(PID.TID 0000.0001) // Begin OBCS MONITOR field statistics
(PID.TID 0000.0001) // =======================================================
(PID.TID 0000.0001) %MON obc_N_vVel_max               =  -1.8112841200789E-07
(PID.TID 0000.0001) %MON obc_N_vVel_min               =  -1.8112841200789E-07
(PID.TID 0000.0001) %MON obc_N_vVel_mean              =  -1.8112841200789E-07
(PID.TID 0000.0001) %MON obc_N_vVel_sd                =  -7.6361735625394E-28
(PID.TID 0000.0001) %MON obc_N_vVel_Int               =  -1.1954475192521E+01
(PID.TID 0000.0001) // =======================================================
(PID.TID 0000.0001) // End OBCS MONITOR field statistics
(PID.TID 0000.0001) // =======================================================
 cg2d: Sum(rhs),rhsMax =   3.00937386675818E+00  4.53044963899371E+02
(PID.TID 0000.0001)      cg2d_init_res =   3.07106334438339E-06
(PID.TID 0000.0001)      cg2d_iters(min,last) =      -1      74
(PID.TID 0000.0001)      cg2d_last_res =   9.61042021617384E-12
(PID.TID 0000.0001) // =======================================================
(PID.TID 0000.0001) // Begin MONITOR dynamic field statistics
(PID.TID 0000.0001) // =======================================================
(PID.TID 0000.0001) %MON time_tsnumber                =                  1079
(PID.TID 0000.0001) %MON time_secondsf                =   1.0790000000000E+05
(PID.TID 0000.0001) %MON dynstat_eta_max              =   5.7984584354163E+00
(PID.TID 0000.0001) %MON dynstat_eta_min              =  -1.4172199131215E+01
(PID.TID 0000.0001) %MON dynstat_eta_mean             =  -2.5247808793059E+00
(PID.TID 0000.0001) %MON dynstat_eta_sd               =   4.9412807199102E+00
(PID.TID 0000.0001) %MON dynstat_eta_del2             =   1.9058557934423E-01
(PID.TID 0000.0001) %MON dynstat_uvel_max             =   5.4283956812595E-03
(PID.TID 0000.0001) %MON dynstat_uvel_min             =  -2.5571994136953E-02
(PID.TID 0000.0001) %MON dynstat_uvel_mean            =   4.3504842224269E-10
(PID.TID 0000.0001) %MON dynstat_uvel_sd              =   6.9173218192945E-04
(PID.TID 0000.0001) %MON dynstat_uvel_del2            =   1.0632600300306E-06
(PID.TID 0000.0001) %MON dynstat_vvel_max             =   1.8471180709633E-02
(PID.TID 0000.0001) %MON dynstat_vvel_min             =  -6.7690534356641E-03
(PID.TID 0000.0001) %MON dynstat_vvel_mean            =  -1.5553677209921E-07
(PID.TID 0000.0001) %MON dynstat_vvel_sd              =   3.4897492386703E-04
(PID.TID 0000.0001) %MON dynstat_vvel_del2            =   9.1830588550015E-07
(PID.TID 0000.0001) %MON dynstat_wvel_max             =   1.0392451115865E-03
(PID.TID 0000.0001) %MON dynstat_wvel_min             =  -1.1898256102292E-03
(PID.TID 0000.0001) %MON dynstat_wvel_mean            =   3.4442560947171E-10
(PID.TID 0000.0001) %MON dynstat_wvel_sd              =   1.7263788490734E-05
(PID.TID 0000.0001) %MON dynstat_wvel_del2            =   7.2517769526088E-08
(PID.TID 0000.0001) %MON dynstat_theta_max            =   1.2000000000000E+00
(PID.TID 0000.0001) %MON dynstat_theta_min            =  -1.0000000000000E+00
(PID.TID 0000.0001) %MON dynstat_theta_mean           =   5.6518117724279E-01
(PID.TID 0000.0001) %MON dynstat_theta_sd             =   8.4896182460616E-01
(PID.TID 0000.0001) %MON dynstat_theta_del2           =   2.5817676764991E-06
(PID.TID 0000.0001) %MON dynstat_salt_max             =   3.4700000000000E+01
(PID.TID 0000.0001) %MON dynstat_salt_min             =   3.4000000000000E+01
(PID.TID 0000.0001) %MON dynstat_salt_mean            =   3.4497986434031E+01
(PID.TID 0000.0001) %MON dynstat_salt_sd              =   2.7012107792671E-01
(PID.TID 0000.0001) %MON dynstat_salt_del2            =   1.0203406037148E-06
(PID.TID 0000.0001) %MON advcfl_uvel_max              =   2.5571994136953E-03
(PID.TID 0000.0001) %MON advcfl_vvel_max              =   1.8471180709633E-03
(PID.TID 0000.0001) %MON advcfl_wvel_max              =   5.9491280511459E-03
(PID.TID 0000.0001) %MON advcfl_W_hf_max              =   5.9491280511459E-03
(PID.TID 0000.0001) %MON pe_b_mean                    =  -6.8217442044349E-01
(PID.TID 0000.0001) %MON ke_max                       =   2.4362270292573E-04
(PID.TID 0000.0001) %MON ke_mean                      =   2.9563915842271E-07
(PID.TID 0000.0001) %MON ke_vol                       =   4.6183027680547E+12
(PID.TID 0000.0001) // =======================================================
(PID.TID 0000.0001) // End MONITOR dynamic field statistics
(PID.TID 0000.0001) // =======================================================
(PID.TID 0000.0001) // =======================================================
(PID.TID 0000.0001) // Begin OBCS MONITOR field statistics
(PID.TID 0000.0001) // =======================================================
(PID.TID 0000.0001) %MON obc_N_vVel_max               =  -1.8044094264654E-07
(PID.TID 0000.0001) %MON obc_N_vVel_min               =  -1.8044094264655E-07
(PID.TID 0000.0001) %MON obc_N_vVel_mean              =  -1.8044094264655E-07
(PID.TID 0000.0001) %MON obc_N_vVel_sd                =  -2.4170698135972E-27
(PID.TID 0000.0001) %MON obc_N_vVel_Int               =  -1.1909102214672E+01
(PID.TID 0000.0001) // =======================================================
(PID.TID 0000.0001) // End OBCS MONITOR field statistics
(PID.TID 0000.0001) // =======================================================
 cg2d: Sum(rhs),rhsMax =   3.00936721449825E+00  4.53044951424855E+02
(PID.TID 0000.0001)      cg2d_init_res =   3.07375407184741E-06
(PID.TID 0000.0001)      cg2d_iters(min,last) =      -1      74
(PID.TID 0000.0001)      cg2d_last_res =   9.63254854383097E-12
(PID.TID 0000.0001) // =======================================================
(PID.TID 0000.0001) // Begin MONITOR dynamic field statistics
(PID.TID 0000.0001) // =======================================================
(PID.TID 0000.0001) %MON time_tsnumber                =                  1080
(PID.TID 0000.0001) %MON time_secondsf                =   1.0800000000000E+05
(PID.TID 0000.0001) %MON dynstat_eta_max              =   5.7984614744014E+00
(PID.TID 0000.0001) %MON dynstat_eta_min              =  -1.4172187077474E+01
(PID.TID 0000.0001) %MON dynstat_eta_mean             =  -2.5247752287258E+00
(PID.TID 0000.0001) %MON dynstat_eta_sd               =   4.9412790782700E+00
(PID.TID 0000.0001) %MON dynstat_eta_del2             =   1.9058559494614E-01
(PID.TID 0000.0001) %MON dynstat_uvel_max             =   5.4419852146843E-03
(PID.TID 0000.0001) %MON dynstat_uvel_min             =  -2.5636386937467E-02
(PID.TID 0000.0001) %MON dynstat_uvel_mean            =   3.7090872007742E-10
(PID.TID 0000.0001) %MON dynstat_uvel_sd              =   6.9349219190921E-04
(PID.TID 0000.0001) %MON dynstat_uvel_del2            =   1.0658648316883E-06
(PID.TID 0000.0001) %MON dynstat_vvel_max             =   1.8508667775748E-02
(PID.TID 0000.0001) %MON dynstat_vvel_min             =  -6.7838943898995E-03
(PID.TID 0000.0001) %MON dynstat_vvel_mean            =  -1.5156849976390E-07
(PID.TID 0000.0001) %MON dynstat_vvel_sd              =   3.4967716484813E-04
(PID.TID 0000.0001) %MON dynstat_vvel_del2            =   9.2022196514830E-07
(PID.TID 0000.0001) %MON dynstat_wvel_max             =   1.0417550808044E-03
(PID.TID 0000.0001) %MON dynstat_wvel_min             =  -1.1934010015315E-03
(PID.TID 0000.0001) %MON dynstat_wvel_mean            =   3.5779792130123E-10
(PID.TID 0000.0001) %MON dynstat_wvel_sd              =   1.7273585229897E-05
(PID.TID 0000.0001) %MON dynstat_wvel_del2            =   7.2556187610498E-08
(PID.TID 0000.0001) %MON dynstat_theta_max            =   1.2000000000000E+00
(PID.TID 0000.0001) %MON dynstat_theta_min            =  -1.0000000000000E+00
(PID.TID 0000.0001) %MON dynstat_theta_mean           =   5.6518057049017E-01
(PID.TID 0000.0001) %MON dynstat_theta_sd             =   8.4896156351596E-01
(PID.TID 0000.0001) %MON dynstat_theta_del2           =   2.5872681479609E-06
(PID.TID 0000.0001) %MON dynstat_salt_max             =   3.4700000000000E+01
(PID.TID 0000.0001) %MON dynstat_salt_min             =   3.4000000000000E+01
(PID.TID 0000.0001) %MON dynstat_salt_mean            =   3.4497986191884E+01
(PID.TID 0000.0001) %MON dynstat_salt_sd              =   2.7012097978566E-01
(PID.TID 0000.0001) %MON dynstat_salt_del2            =   1.0225178997788E-06
(PID.TID 0000.0001) %MON advcfl_uvel_max              =   2.5636386937467E-03
(PID.TID 0000.0001) %MON advcfl_vvel_max              =   1.8508667775748E-03
(PID.TID 0000.0001) %MON advcfl_wvel_max              =   5.9670050076576E-03
(PID.TID 0000.0001) %MON advcfl_W_hf_max              =   5.9670050076576E-03
(PID.TID 0000.0001) %MON pe_b_mean                    =  -6.8217277376378E-01
(PID.TID 0000.0001) %MON ke_max                       =   2.4502467942167E-04
(PID.TID 0000.0001) %MON ke_mean                      =   2.9708055066069E-07
(PID.TID 0000.0001) %MON ke_vol                       =   4.6183028015769E+12
(PID.TID 0000.0001) // =======================================================
(PID.TID 0000.0001) // End MONITOR dynamic field statistics
(PID.TID 0000.0001) // =======================================================
(PID.TID 0000.0001) // =======================================================
(PID.TID 0000.0001) // Begin OBCS MONITOR field statistics
(PID.TID 0000.0001) // =======================================================
(PID.TID 0000.0001) %MON obc_N_vVel_max               =  -1.7781806270567E-07
(PID.TID 0000.0001) %MON obc_N_vVel_min               =  -1.7781806270567E-07
(PID.TID 0000.0001) %MON obc_N_vVel_mean              =  -1.7781806270567E-07
(PID.TID 0000.0001) %MON obc_N_vVel_sd                =  -3.3447702381371E-28
(PID.TID 0000.0001) %MON obc_N_vVel_Int               =  -1.1735992138574E+01
(PID.TID 0000.0001) // =======================================================
(PID.TID 0000.0001) // End OBCS MONITOR field statistics
(PID.TID 0000.0001) // =======================================================
 cg2d: Sum(rhs),rhsMax =   3.00936055033151E+00  4.53044939846382E+02
(PID.TID 0000.0001)      cg2d_init_res =   3.07628257134732E-06
(PID.TID 0000.0001)      cg2d_iters(min,last) =      -1      74
(PID.TID 0000.0001)      cg2d_last_res =   9.65433157185775E-12
(PID.TID 0000.0001) // =======================================================
(PID.TID 0000.0001) // Begin MONITOR dynamic field statistics
(PID.TID 0000.0001) // =======================================================
(PID.TID 0000.0001) %MON time_tsnumber                =                  1081
(PID.TID 0000.0001) %MON time_secondsf                =   1.0810000000000E+05
(PID.TID 0000.0001) %MON dynstat_eta_max              =   5.7984645017547E+00
(PID.TID 0000.0001) %MON dynstat_eta_min              =  -1.4172175013827E+01
(PID.TID 0000.0001) %MON dynstat_eta_mean             =  -2.5247695731500E+00
(PID.TID 0000.0001) %MON dynstat_eta_sd               =   4.9412774377200E+00
(PID.TID 0000.0001) %MON dynstat_eta_del2             =   1.9058561061467E-01
(PID.TID 0000.0001) %MON dynstat_uvel_max             =   5.4556059844719E-03
(PID.TID 0000.0001) %MON dynstat_uvel_min             =  -2.5700867750131E-02
(PID.TID 0000.0001) %MON dynstat_uvel_mean            =   3.0783527477240E-10
(PID.TID 0000.0001) %MON dynstat_uvel_sd              =   6.9525578030741E-04
(PID.TID 0000.0001) %MON dynstat_uvel_del2            =   1.0684759825424E-06
(PID.TID 0000.0001) %MON dynstat_vvel_max             =   1.8546186006019E-02
(PID.TID 0000.0001) %MON dynstat_vvel_min             =  -6.7987587655205E-03
(PID.TID 0000.0001) %MON dynstat_vvel_mean            =  -1.4566838321683E-07
(PID.TID 0000.0001) %MON dynstat_vvel_sd              =   3.5038145966522E-04
(PID.TID 0000.0001) %MON dynstat_vvel_del2            =   9.2214874939659E-07
(PID.TID 0000.0001) %MON dynstat_wvel_max             =   1.0442688559636E-03
(PID.TID 0000.0001) %MON dynstat_wvel_min             =  -1.1969843481890E-03
(PID.TID 0000.0001) %MON dynstat_wvel_mean            =   3.7030547343056E-10
(PID.TID 0000.0001) %MON dynstat_wvel_sd              =   1.7286457319580E-05
(PID.TID 0000.0001) %MON dynstat_wvel_del2            =   7.2609016849145E-08
(PID.TID 0000.0001) %MON dynstat_theta_max            =   1.2000000000000E+00
(PID.TID 0000.0001) %MON dynstat_theta_min            =  -1.0000000000000E+00
(PID.TID 0000.0001) %MON dynstat_theta_mean           =   5.6517996263388E-01
(PID.TID 0000.0001) %MON dynstat_theta_sd             =   8.4896130186844E-01
(PID.TID 0000.0001) %MON dynstat_theta_del2           =   2.5927681559555E-06
(PID.TID 0000.0001) %MON dynstat_salt_max             =   3.4700000000000E+01
(PID.TID 0000.0001) %MON dynstat_salt_min             =   3.4000000000000E+01
(PID.TID 0000.0001) %MON dynstat_salt_mean            =   3.4497985949295E+01
(PID.TID 0000.0001) %MON dynstat_salt_sd              =   2.7012088143033E-01
(PID.TID 0000.0001) %MON dynstat_salt_del2            =   1.0246961976933E-06
(PID.TID 0000.0001) %MON advcfl_uvel_max              =   2.5700867750131E-03
(PID.TID 0000.0001) %MON advcfl_vvel_max              =   1.8546186006019E-03
(PID.TID 0000.0001) %MON advcfl_wvel_max              =   5.9849217409452E-03
(PID.TID 0000.0001) %MON advcfl_W_hf_max              =   5.9849217409452E-03
(PID.TID 0000.0001) %MON pe_b_mean                    =  -6.8217112538330E-01
(PID.TID 0000.0001) %MON ke_max                       =   2.4643356793174E-04
(PID.TID 0000.0001) %MON ke_mean                      =   2.9852863590952E-07
(PID.TID 0000.0001) %MON ke_vol                       =   4.6183028351414E+12
(PID.TID 0000.0001) // =======================================================
(PID.TID 0000.0001) // End MONITOR dynamic field statistics
(PID.TID 0000.0001) // =======================================================
(PID.TID 0000.0001) // =======================================================
(PID.TID 0000.0001) // Begin OBCS MONITOR field statistics
(PID.TID 0000.0001) // =======================================================
(PID.TID 0000.0001) %MON obc_N_vVel_max               =  -1.7327841131105E-07
(PID.TID 0000.0001) %MON obc_N_vVel_min               =  -1.7327841131105E-07
(PID.TID 0000.0001) %MON obc_N_vVel_mean              =  -1.7327841131105E-07
(PID.TID 0000.0001) %MON obc_N_vVel_sd                =  -2.4675569115313E-27
(PID.TID 0000.0001) %MON obc_N_vVel_Int               =  -1.1436375146529E+01
(PID.TID 0000.0001) // =======================================================
(PID.TID 0000.0001) // End OBCS MONITOR field statistics
(PID.TID 0000.0001) // =======================================================
 cg2d: Sum(rhs),rhsMax =   3.00935387673484E+00  4.53044929162717E+02
(PID.TID 0000.0001)      cg2d_init_res =   3.07871007885637E-06
(PID.TID 0000.0001)      cg2d_iters(min,last) =      -1      74
(PID.TID 0000.0001)      cg2d_last_res =   9.67577638310663E-12
(PID.TID 0000.0001) // =======================================================
(PID.TID 0000.0001) // Begin MONITOR dynamic field statistics
(PID.TID 0000.0001) // =======================================================
(PID.TID 0000.0001) %MON time_tsnumber                =                  1082
(PID.TID 0000.0001) %MON time_secondsf                =   1.0820000000000E+05
(PID.TID 0000.0001) %MON dynstat_eta_max              =   5.7984675141880E+00
(PID.TID 0000.0001) %MON dynstat_eta_min              =  -1.4172162943939E+01
(PID.TID 0000.0001) %MON dynstat_eta_mean             =  -2.5247639146498E+00
(PID.TID 0000.0001) %MON dynstat_eta_sd               =   4.9412757989020E+00
(PID.TID 0000.0001) %MON dynstat_eta_del2             =   1.9058562635162E-01
(PID.TID 0000.0001) %MON dynstat_uvel_max             =   5.4692580426003E-03
(PID.TID 0000.0001) %MON dynstat_uvel_min             =  -2.5765436362558E-02
(PID.TID 0000.0001) %MON dynstat_uvel_mean            =   2.4675884892318E-10
(PID.TID 0000.0001) %MON dynstat_uvel_sd              =   6.9702295378084E-04
(PID.TID 0000.0001) %MON dynstat_uvel_del2            =   1.0710934929695E-06
(PID.TID 0000.0001) %MON dynstat_vvel_max             =   1.8583735292532E-02
(PID.TID 0000.0001) %MON dynstat_vvel_min             =  -6.8136465580695E-03
(PID.TID 0000.0001) %MON dynstat_vvel_mean            =  -1.3789283753312E-07
(PID.TID 0000.0001) %MON dynstat_vvel_sd              =   3.5108814391660E-04
(PID.TID 0000.0001) %MON dynstat_vvel_del2            =   9.2408775847571E-07
(PID.TID 0000.0001) %MON dynstat_wvel_max             =   1.0467864355372E-03
(PID.TID 0000.0001) %MON dynstat_wvel_min             =  -1.2005756438621E-03
(PID.TID 0000.0001) %MON dynstat_wvel_mean            =   3.8180176249613E-10
(PID.TID 0000.0001) %MON dynstat_wvel_sd              =   1.7303497913928E-05
(PID.TID 0000.0001) %MON dynstat_wvel_del2            =   7.2680401256908E-08
(PID.TID 0000.0001) %MON dynstat_theta_max            =   1.2000000000000E+00
(PID.TID 0000.0001) %MON dynstat_theta_min            =  -1.0000000000000E+00
(PID.TID 0000.0001) %MON dynstat_theta_mean           =   5.6517935367415E-01
(PID.TID 0000.0001) %MON dynstat_theta_sd             =   8.4896103966056E-01
(PID.TID 0000.0001) %MON dynstat_theta_del2           =   2.5982653745937E-06
(PID.TID 0000.0001) %MON dynstat_salt_max             =   3.4700000000000E+01
(PID.TID 0000.0001) %MON dynstat_salt_min             =   3.4000000000000E+01
(PID.TID 0000.0001) %MON dynstat_salt_mean            =   3.4497985706262E+01
(PID.TID 0000.0001) %MON dynstat_salt_sd              =   2.7012078285956E-01
(PID.TID 0000.0001) %MON dynstat_salt_del2            =   1.0268748848653E-06
(PID.TID 0000.0001) %MON advcfl_uvel_max              =   2.5765436362558E-03
(PID.TID 0000.0001) %MON advcfl_vvel_max              =   1.8583735292532E-03
(PID.TID 0000.0001) %MON advcfl_wvel_max              =   6.0028782193104E-03
(PID.TID 0000.0001) %MON advcfl_W_hf_max              =   6.0028782193104E-03
(PID.TID 0000.0001) %MON pe_b_mean                    =  -6.8216947569784E-01
(PID.TID 0000.0001) %MON ke_max                       =   2.4784939599383E-04
(PID.TID 0000.0001) %MON ke_mean                      =   2.9998355950030E-07
(PID.TID 0000.0001) %MON ke_vol                       =   4.6183028687355E+12
(PID.TID 0000.0001) // =======================================================
(PID.TID 0000.0001) // End MONITOR dynamic field statistics
(PID.TID 0000.0001) // =======================================================
(PID.TID 0000.0001) // =======================================================
(PID.TID 0000.0001) // Begin OBCS MONITOR field statistics
(PID.TID 0000.0001) // =======================================================
(PID.TID 0000.0001) %MON obc_N_vVel_max               =  -1.6686336594536E-07
(PID.TID 0000.0001) %MON obc_N_vVel_min               =  -1.6686336594536E-07
(PID.TID 0000.0001) %MON obc_N_vVel_mean              =  -1.6686336594536E-07
(PID.TID 0000.0001) %MON obc_N_vVel_sd                =   0.0000000000000E+00
(PID.TID 0000.0001) %MON obc_N_vVel_Int               =  -1.1012982152394E+01
(PID.TID 0000.0001) // =======================================================
(PID.TID 0000.0001) // End OBCS MONITOR field statistics
(PID.TID 0000.0001) // =======================================================
 cg2d: Sum(rhs),rhsMax =   3.00934719616545E+00  4.53044919362727E+02
(PID.TID 0000.0001)      cg2d_init_res =   3.08109945932891E-06
(PID.TID 0000.0001)      cg2d_iters(min,last) =      -1      74
(PID.TID 0000.0001)      cg2d_last_res =   9.69691686939385E-12
(PID.TID 0000.0001) // =======================================================
(PID.TID 0000.0001) // Begin MONITOR dynamic field statistics
(PID.TID 0000.0001) // =======================================================
(PID.TID 0000.0001) %MON time_tsnumber                =                  1083
(PID.TID 0000.0001) %MON time_secondsf                =   1.0830000000000E+05
(PID.TID 0000.0001) %MON dynstat_eta_max              =   5.7984705085746E+00
(PID.TID 0000.0001) %MON dynstat_eta_min              =  -1.4172150871333E+01
(PID.TID 0000.0001) %MON dynstat_eta_mean             =  -2.5247582552245E+00
(PID.TID 0000.0001) %MON dynstat_eta_sd               =   4.9412741624089E+00
(PID.TID 0000.0001) %MON dynstat_eta_del2             =   1.9058564215852E-01
(PID.TID 0000.0001) %MON dynstat_uvel_max             =   5.4829414410378E-03
(PID.TID 0000.0001) %MON dynstat_uvel_min             =  -2.5830092560373E-02
(PID.TID 0000.0001) %MON dynstat_uvel_mean            =   1.8859707122739E-10
(PID.TID 0000.0001) %MON dynstat_uvel_sd              =   6.9879371916342E-04
(PID.TID 0000.0001) %MON dynstat_uvel_del2            =   1.0737173757924E-06
(PID.TID 0000.0001) %MON dynstat_vvel_max             =   1.8621315524452E-02
(PID.TID 0000.0001) %MON dynstat_vvel_min             =  -6.8285577648179E-03
(PID.TID 0000.0001) %MON dynstat_vvel_mean            =  -1.2832098541764E-07
(PID.TID 0000.0001) %MON dynstat_vvel_sd              =   3.5179749959802E-04
(PID.TID 0000.0001) %MON dynstat_vvel_del2            =   9.2604017257174E-07
(PID.TID 0000.0001) %MON dynstat_wvel_max             =   1.0493078180308E-03
(PID.TID 0000.0001) %MON dynstat_wvel_min             =  -1.2041748818343E-03
(PID.TID 0000.0001) %MON dynstat_wvel_mean            =   3.9215023599709E-10
(PID.TID 0000.0001) %MON dynstat_wvel_sd              =   1.7325646896535E-05
(PID.TID 0000.0001) %MON dynstat_wvel_del2            =   7.2774028692849E-08
(PID.TID 0000.0001) %MON dynstat_theta_max            =   1.2000000000000E+00
(PID.TID 0000.0001) %MON dynstat_theta_min            =  -1.0000000000000E+00
(PID.TID 0000.0001) %MON dynstat_theta_mean           =   5.6517874361104E-01
(PID.TID 0000.0001) %MON dynstat_theta_sd             =   8.4896077688730E-01
(PID.TID 0000.0001) %MON dynstat_theta_del2           =   2.6037579436741E-06
(PID.TID 0000.0001) %MON dynstat_salt_max             =   3.4700000000000E+01
(PID.TID 0000.0001) %MON dynstat_salt_min             =   3.4000000000000E+01
(PID.TID 0000.0001) %MON dynstat_salt_mean            =   3.4497985462787E+01
(PID.TID 0000.0001) %MON dynstat_salt_sd              =   2.7012068407205E-01
(PID.TID 0000.0001) %MON dynstat_salt_del2            =   1.0290534642821E-06
(PID.TID 0000.0001) %MON advcfl_uvel_max              =   2.5830092560373E-03
(PID.TID 0000.0001) %MON advcfl_vvel_max              =   1.8621315524452E-03
(PID.TID 0000.0001) %MON advcfl_wvel_max              =   6.0208744091716E-03
(PID.TID 0000.0001) %MON advcfl_W_hf_max              =   6.0208744091716E-03
(PID.TID 0000.0001) %MON pe_b_mean                    =  -6.8216782508451E-01
(PID.TID 0000.0001) %MON ke_max                       =   2.4927219122093E-04
(PID.TID 0000.0001) %MON ke_mean                      =   3.0144544908895E-07
(PID.TID 0000.0001) %MON ke_vol                       =   4.6183029023470E+12
(PID.TID 0000.0001) // =======================================================
(PID.TID 0000.0001) // End MONITOR dynamic field statistics
(PID.TID 0000.0001) // =======================================================
(PID.TID 0000.0001) // =======================================================
(PID.TID 0000.0001) // Begin OBCS MONITOR field statistics
(PID.TID 0000.0001) // =======================================================
(PID.TID 0000.0001) %MON obc_N_vVel_max               =  -1.5863680612894E-07
(PID.TID 0000.0001) %MON obc_N_vVel_min               =  -1.5863680612894E-07
(PID.TID 0000.0001) %MON obc_N_vVel_mean              =  -1.5863680612894E-07
(PID.TID 0000.0001) %MON obc_N_vVel_sd                =  -1.3883951931890E-28
(PID.TID 0000.0001) %MON obc_N_vVel_Int               =  -1.0470029204510E+01
(PID.TID 0000.0001) // =======================================================
(PID.TID 0000.0001) // End OBCS MONITOR field statistics
(PID.TID 0000.0001) // =======================================================
 cg2d: Sum(rhs),rhsMax =   3.00934051103158E+00  4.53044910425457E+02
(PID.TID 0000.0001)      cg2d_init_res =   3.08351471636702E-06
(PID.TID 0000.0001)      cg2d_iters(min,last) =      -1      74
(PID.TID 0000.0001)      cg2d_last_res =   9.71777647575097E-12
(PID.TID 0000.0001) // =======================================================
(PID.TID 0000.0001) // Begin MONITOR dynamic field statistics
(PID.TID 0000.0001) // =======================================================
(PID.TID 0000.0001) %MON time_tsnumber                =                  1084
(PID.TID 0000.0001) %MON time_secondsf                =   1.0840000000000E+05
(PID.TID 0000.0001) %MON dynstat_eta_max              =   5.7984734819644E+00
(PID.TID 0000.0001) %MON dynstat_eta_min              =  -1.4172138799308E+01
(PID.TID 0000.0001) %MON dynstat_eta_mean             =  -2.5247525967778E+00
(PID.TID 0000.0001) %MON dynstat_eta_sd               =   4.9412725287804E+00
(PID.TID 0000.0001) %MON dynstat_eta_del2             =   1.9058565803653E-01
(PID.TID 0000.0001) %MON dynstat_uvel_max             =   5.4966562317222E-03
(PID.TID 0000.0001) %MON dynstat_uvel_min             =  -2.5894836127797E-02
(PID.TID 0000.0001) %MON dynstat_uvel_mean            =   1.3424452992679E-10
(PID.TID 0000.0001) %MON dynstat_uvel_sd              =   7.0056808349149E-04
(PID.TID 0000.0001) %MON dynstat_uvel_del2            =   1.0763476463349E-06
(PID.TID 0000.0001) %MON dynstat_vvel_max             =   1.8658926588171E-02
(PID.TID 0000.0001) %MON dynstat_vvel_min             =  -6.8434923845304E-03
(PID.TID 0000.0001) %MON dynstat_vvel_mean            =  -1.1705395177452E-07
(PID.TID 0000.0001) %MON dynstat_vvel_sd              =   3.5250974264539E-04
(PID.TID 0000.0001) %MON dynstat_vvel_del2            =   9.2800678285756E-07
(PID.TID 0000.0001) %MON dynstat_wvel_max             =   1.0518330019615E-03
(PID.TID 0000.0001) %MON dynstat_wvel_min             =  -1.2077820551246E-03
(PID.TID 0000.0001) %MON dynstat_wvel_mean            =   4.0122668561366E-10
(PID.TID 0000.0001) %MON dynstat_wvel_sd              =   1.7353646157284E-05
(PID.TID 0000.0001) %MON dynstat_wvel_del2            =   7.2892975528616E-08
(PID.TID 0000.0001) %MON dynstat_theta_max            =   1.2000000000000E+00
(PID.TID 0000.0001) %MON dynstat_theta_min            =  -1.0000000000000E+00
(PID.TID 0000.0001) %MON dynstat_theta_mean           =   5.6517813244445E-01
(PID.TID 0000.0001) %MON dynstat_theta_sd             =   8.4896051354541E-01
(PID.TID 0000.0001) %MON dynstat_theta_del2           =   2.6092442757719E-06
(PID.TID 0000.0001) %MON dynstat_salt_max             =   3.4700000000000E+01
(PID.TID 0000.0001) %MON dynstat_salt_min             =   3.4000000000000E+01
(PID.TID 0000.0001) %MON dynstat_salt_mean            =   3.4497985218870E+01
(PID.TID 0000.0001) %MON dynstat_salt_sd              =   2.7012058506636E-01
(PID.TID 0000.0001) %MON dynstat_salt_del2            =   1.0312312508765E-06
(PID.TID 0000.0001) %MON advcfl_uvel_max              =   2.5894836127797E-03
(PID.TID 0000.0001) %MON advcfl_vvel_max              =   1.8658926588171E-03
(PID.TID 0000.0001) %MON advcfl_wvel_max              =   6.0389102756231E-03
(PID.TID 0000.0001) %MON advcfl_W_hf_max              =   6.0389102756231E-03
(PID.TID 0000.0001) %MON pe_b_mean                    =  -6.8216617389723E-01
(PID.TID 0000.0001) %MON ke_max                       =   2.5070198130422E-04
(PID.TID 0000.0001) %MON ke_mean                      =   3.0291441009960E-07
(PID.TID 0000.0001) %MON ke_vol                       =   4.6183029359640E+12
(PID.TID 0000.0001) // =======================================================
(PID.TID 0000.0001) // End MONITOR dynamic field statistics
(PID.TID 0000.0001) // =======================================================
(PID.TID 0000.0001) // =======================================================
(PID.TID 0000.0001) // Begin OBCS MONITOR field statistics
(PID.TID 0000.0001) // =======================================================
(PID.TID 0000.0001) %MON obc_N_vVel_max               =  -1.4868462911952E-07
(PID.TID 0000.0001) %MON obc_N_vVel_min               =  -1.4868462911952E-07
(PID.TID 0000.0001) %MON obc_N_vVel_mean              =  -1.4868462911952E-07
(PID.TID 0000.0001) %MON obc_N_vVel_sd                =   2.8477166477148E-14
(PID.TID 0000.0001) %MON obc_N_vVel_Int               =  -9.8131855218885E+00
(PID.TID 0000.0001) // =======================================================
(PID.TID 0000.0001) // End OBCS MONITOR field statistics
(PID.TID 0000.0001) // =======================================================
 cg2d: Sum(rhs),rhsMax =   3.00933382366383E+00  4.53044902320428E+02
(PID.TID 0000.0001)      cg2d_init_res =   3.08600972124085E-06
(PID.TID 0000.0001)      cg2d_iters(min,last) =      -1      74
(PID.TID 0000.0001)      cg2d_last_res =   9.73870336110929E-12
(PID.TID 0000.0001) // =======================================================
(PID.TID 0000.0001) // Begin MONITOR dynamic field statistics
(PID.TID 0000.0001) // =======================================================
(PID.TID 0000.0001) %MON time_tsnumber                =                  1085
(PID.TID 0000.0001) %MON time_secondsf                =   1.0850000000000E+05
(PID.TID 0000.0001) %MON dynstat_eta_max              =   5.7984764316459E+00
(PID.TID 0000.0001) %MON dynstat_eta_min              =  -1.4172126730931E+01
(PID.TID 0000.0001) %MON dynstat_eta_mean             =  -2.5247469410951E+00
(PID.TID 0000.0001) %MON dynstat_eta_sd               =   4.9412708984876E+00
(PID.TID 0000.0001) %MON dynstat_eta_del2             =   1.9058567398612E-01
(PID.TID 0000.0001) %MON dynstat_uvel_max             =   5.5104024668600E-03
(PID.TID 0000.0001) %MON dynstat_uvel_min             =  -2.5959666846782E-02
(PID.TID 0000.0001) %MON dynstat_uvel_mean            =   8.4545517330696E-11
(PID.TID 0000.0001) %MON dynstat_uvel_sd              =   7.0234605442924E-04
(PID.TID 0000.0001) %MON dynstat_uvel_del2            =   1.0789843187899E-06
(PID.TID 0000.0001) %MON dynstat_vvel_max             =   1.8696568367429E-02
(PID.TID 0000.0001) %MON dynstat_vvel_min             =  -6.8584504175577E-03
(PID.TID 0000.0001) %MON dynstat_vvel_mean            =  -1.0421385719298E-07
(PID.TID 0000.0001) %MON dynstat_vvel_sd              =   3.5322501354722E-04
(PID.TID 0000.0001) %MON dynstat_vvel_del2            =   9.2998795551846E-07
(PID.TID 0000.0001) %MON dynstat_wvel_max             =   1.0543619858634E-03
(PID.TID 0000.0001) %MON dynstat_wvel_min             =  -1.2113971563898E-03
(PID.TID 0000.0001) %MON dynstat_wvel_mean            =   4.0892141067721E-10
(PID.TID 0000.0001) %MON dynstat_wvel_sd              =   1.7388000469548E-05
(PID.TID 0000.0001) %MON dynstat_wvel_del2            =   7.3039535663153E-08
(PID.TID 0000.0001) %MON dynstat_theta_max            =   1.2000000000000E+00
(PID.TID 0000.0001) %MON dynstat_theta_min            =  -1.0000000000000E+00
(PID.TID 0000.0001) %MON dynstat_theta_mean           =   5.6517752017417E-01
(PID.TID 0000.0001) %MON dynstat_theta_sd             =   8.4896024963014E-01
(PID.TID 0000.0001) %MON dynstat_theta_del2           =   2.6147223298418E-06
(PID.TID 0000.0001) %MON dynstat_salt_max             =   3.4700000000000E+01
(PID.TID 0000.0001) %MON dynstat_salt_min             =   3.4000000000000E+01
(PID.TID 0000.0001) %MON dynstat_salt_mean            =   3.4497984974509E+01
(PID.TID 0000.0001) %MON dynstat_salt_sd              =   2.7012048584117E-01
(PID.TID 0000.0001) %MON dynstat_salt_del2            =   1.0334079772612E-06
(PID.TID 0000.0001) %MON advcfl_uvel_max              =   2.5959666846782E-03
(PID.TID 0000.0001) %MON advcfl_vvel_max              =   1.8696568367429E-03
(PID.TID 0000.0001) %MON advcfl_wvel_max              =   6.0569857819489E-03
(PID.TID 0000.0001) %MON advcfl_W_hf_max              =   6.0569857819489E-03
(PID.TID 0000.0001) %MON pe_b_mean                    =  -6.8216452246234E-01
(PID.TID 0000.0001) %MON ke_max                       =   2.5213879404203E-04
(PID.TID 0000.0001) %MON ke_mean                      =   3.0439052247268E-07
(PID.TID 0000.0001) %MON ke_vol                       =   4.6183029695751E+12
(PID.TID 0000.0001) // =======================================================
(PID.TID 0000.0001) // End MONITOR dynamic field statistics
(PID.TID 0000.0001) // =======================================================
(PID.TID 0000.0001) // =======================================================
(PID.TID 0000.0001) // Begin OBCS MONITOR field statistics
(PID.TID 0000.0001) // =======================================================
(PID.TID 0000.0001) %MON obc_N_vVel_max               =  -1.3711390136541E-07
(PID.TID 0000.0001) %MON obc_N_vVel_min               =  -1.3711390136541E-07
(PID.TID 0000.0001) %MON obc_N_vVel_mean              =  -1.3711390136541E-07
(PID.TID 0000.0001) %MON obc_N_vVel_sd                =  -9.6872119161140E-28
(PID.TID 0000.0001) %MON obc_N_vVel_Int               =  -9.0495174901172E+00
(PID.TID 0000.0001) // =======================================================
(PID.TID 0000.0001) // End OBCS MONITOR field statistics
(PID.TID 0000.0001) // =======================================================
 cg2d: Sum(rhs),rhsMax =   3.00932713629059E+00  4.53044895007281E+02
(PID.TID 0000.0001)      cg2d_init_res =   3.08866129611332E-06
(PID.TID 0000.0001)      cg2d_iters(min,last) =      -1      74
(PID.TID 0000.0001)      cg2d_last_res =   9.75925283474212E-12
(PID.TID 0000.0001) // =======================================================
(PID.TID 0000.0001) // Begin MONITOR dynamic field statistics
(PID.TID 0000.0001) // =======================================================
(PID.TID 0000.0001) %MON time_tsnumber                =                  1086
(PID.TID 0000.0001) %MON time_secondsf                =   1.0860000000000E+05
(PID.TID 0000.0001) %MON dynstat_eta_max              =   5.7984793551626E+00
(PID.TID 0000.0001) %MON dynstat_eta_min              =  -1.4172114668973E+01
(PID.TID 0000.0001) %MON dynstat_eta_mean             =  -2.5247412898210E+00
(PID.TID 0000.0001) %MON dynstat_eta_sd               =   4.9412692719399E+00
(PID.TID 0000.0001) %MON dynstat_eta_del2             =   1.9058569000783E-01
(PID.TID 0000.0001) %MON dynstat_uvel_max             =   5.5241801983223E-03
(PID.TID 0000.0001) %MON dynstat_uvel_min             =  -2.6024584502665E-02
(PID.TID 0000.0001) %MON dynstat_uvel_mean            =   4.0310888087174E-11
(PID.TID 0000.0001) %MON dynstat_uvel_sd              =   7.0412763977919E-04
(PID.TID 0000.0001) %MON dynstat_uvel_del2            =   1.0816274103813E-06
(PID.TID 0000.0001) %MON dynstat_vvel_max             =   1.8734240743398E-02
(PID.TID 0000.0001) %MON dynstat_vvel_min             =  -6.8734318659978E-03
(PID.TID 0000.0001) %MON dynstat_vvel_mean            =  -8.9942590367555E-08
(PID.TID 0000.0001) %MON dynstat_vvel_sd              =   3.5394337015965E-04
(PID.TID 0000.0001) %MON dynstat_vvel_del2            =   9.3198359995673E-07
(PID.TID 0000.0001) %MON dynstat_wvel_max             =   1.0568947682871E-03
(PID.TID 0000.0001) %MON dynstat_wvel_min             =  -1.2150201779458E-03
(PID.TID 0000.0001) %MON dynstat_wvel_mean            =   4.1513815926455E-10
(PID.TID 0000.0001) %MON dynstat_wvel_sd              =   1.7428946422086E-05
(PID.TID 0000.0001) %MON dynstat_wvel_del2            =   7.3215042742276E-08
(PID.TID 0000.0001) %MON dynstat_theta_max            =   1.2000000000000E+00
(PID.TID 0000.0001) %MON dynstat_theta_min            =  -1.0000000000000E+00
(PID.TID 0000.0001) %MON dynstat_theta_mean           =   5.6517690679988E-01
(PID.TID 0000.0001) %MON dynstat_theta_sd             =   8.4895998513799E-01
(PID.TID 0000.0001) %MON dynstat_theta_del2           =   2.6201936655611E-06
(PID.TID 0000.0001) %MON dynstat_salt_max             =   3.4700000000000E+01
(PID.TID 0000.0001) %MON dynstat_salt_min             =   3.4000000000000E+01
(PID.TID 0000.0001) %MON dynstat_salt_mean            =   3.4497984729704E+01
(PID.TID 0000.0001) %MON dynstat_salt_sd              =   2.7012038639540E-01
(PID.TID 0000.0001) %MON dynstat_salt_del2            =   1.0355840380826E-06
(PID.TID 0000.0001) %MON advcfl_uvel_max              =   2.6024584502665E-03
(PID.TID 0000.0001) %MON advcfl_vvel_max              =   1.8734240743398E-03
(PID.TID 0000.0001) %MON advcfl_wvel_max              =   6.0751008897291E-03
(PID.TID 0000.0001) %MON advcfl_W_hf_max              =   6.0751008897291E-03
(PID.TID 0000.0001) %MON pe_b_mean                    =  -6.8216287107439E-01
(PID.TID 0000.0001) %MON ke_max                       =   2.5358265742435E-04
(PID.TID 0000.0001) %MON ke_mean                      =   3.0587383752153E-07
(PID.TID 0000.0001) %MON ke_vol                       =   4.6183030031699E+12
(PID.TID 0000.0001) // =======================================================
(PID.TID 0000.0001) // End MONITOR dynamic field statistics
(PID.TID 0000.0001) // =======================================================
(PID.TID 0000.0001) // =======================================================
(PID.TID 0000.0001) // Begin OBCS MONITOR field statistics
(PID.TID 0000.0001) // =======================================================
(PID.TID 0000.0001) %MON obc_N_vVel_max               =  -1.2405177209242E-07
(PID.TID 0000.0001) %MON obc_N_vVel_min               =  -1.2405177209242E-07
(PID.TID 0000.0001) %MON obc_N_vVel_mean              =  -1.2405177209242E-07
(PID.TID 0000.0001) %MON obc_N_vVel_sd                =  -5.6166896451736E-28
(PID.TID 0000.0001) %MON obc_N_vVel_Int               =  -8.1874169581000E+00
(PID.TID 0000.0001) // =======================================================
(PID.TID 0000.0001) // End OBCS MONITOR field statistics
(PID.TID 0000.0001) // =======================================================
 cg2d: Sum(rhs),rhsMax =   3.00932045099762E+00  4.53044888437790E+02
(PID.TID 0000.0001)      cg2d_init_res =   3.09153119719861E-06
(PID.TID 0000.0001)      cg2d_iters(min,last) =      -1      74
(PID.TID 0000.0001)      cg2d_last_res =   9.77926495631454E-12
(PID.TID 0000.0001) // =======================================================
(PID.TID 0000.0001) // Begin MONITOR dynamic field statistics
(PID.TID 0000.0001) // =======================================================
(PID.TID 0000.0001) %MON time_tsnumber                =                  1087
(PID.TID 0000.0001) %MON time_secondsf                =   1.0870000000000E+05
(PID.TID 0000.0001) %MON dynstat_eta_max              =   5.7984822503501E+00
(PID.TID 0000.0001) %MON dynstat_eta_min              =  -1.4172102615901E+01
(PID.TID 0000.0001) %MON dynstat_eta_mean             =  -2.5247356444366E+00
(PID.TID 0000.0001) %MON dynstat_eta_sd               =   4.9412676494768E+00
(PID.TID 0000.0001) %MON dynstat_eta_del2             =   1.9058570610206E-01
(PID.TID 0000.0001) %MON dynstat_uvel_max             =   5.5379894776957E-03
(PID.TID 0000.0001) %MON dynstat_uvel_min             =  -2.6089588876154E-02
(PID.TID 0000.0001) %MON dynstat_uvel_mean            =   2.3118927109162E-12
(PID.TID 0000.0001) %MON dynstat_uvel_sd              =   7.0591284726763E-04
(PID.TID 0000.0001) %MON dynstat_uvel_del2            =   1.0842769433164E-06
(PID.TID 0000.0001) %MON dynstat_vvel_max             =   1.8771943594917E-02
(PID.TID 0000.0001) %MON dynstat_vvel_min             =  -6.8884367327078E-03
(PID.TID 0000.0001) %MON dynstat_vvel_mean            =  -7.4400315613948E-08
(PID.TID 0000.0001) %MON dynstat_vvel_sd              =   3.5466478436475E-04
(PID.TID 0000.0001) %MON dynstat_vvel_del2            =   9.3399315413072E-07
(PID.TID 0000.0001) %MON dynstat_wvel_max             =   1.0594313477959E-03
(PID.TID 0000.0001) %MON dynstat_wvel_min             =  -1.2186511118117E-03
(PID.TID 0000.0001) %MON dynstat_wvel_mean            =   4.1979679653685E-10
(PID.TID 0000.0001) %MON dynstat_wvel_sd              =   1.7476431911633E-05
(PID.TID 0000.0001) %MON dynstat_wvel_del2            =   7.3419705188481E-08
(PID.TID 0000.0001) %MON dynstat_theta_max            =   1.2000000000000E+00
(PID.TID 0000.0001) %MON dynstat_theta_min            =  -1.0000000000000E+00
(PID.TID 0000.0001) %MON dynstat_theta_mean           =   5.6517629232093E-01
(PID.TID 0000.0001) %MON dynstat_theta_sd             =   8.4895972006582E-01
(PID.TID 0000.0001) %MON dynstat_theta_del2           =   2.6256589119213E-06
(PID.TID 0000.0001) %MON dynstat_salt_max             =   3.4700000000000E+01
(PID.TID 0000.0001) %MON dynstat_salt_min             =   3.4000000000000E+01
(PID.TID 0000.0001) %MON dynstat_salt_mean            =   3.4497984484456E+01
(PID.TID 0000.0001) %MON dynstat_salt_sd              =   2.7012028672764E-01
(PID.TID 0000.0001) %MON dynstat_salt_del2            =   1.0377595884348E-06
(PID.TID 0000.0001) %MON advcfl_uvel_max              =   2.6089588876154E-03
(PID.TID 0000.0001) %MON advcfl_vvel_max              =   1.8771943594917E-03
(PID.TID 0000.0001) %MON advcfl_wvel_max              =   6.0932555590586E-03
(PID.TID 0000.0001) %MON advcfl_W_hf_max              =   6.0932555590586E-03
(PID.TID 0000.0001) %MON pe_b_mean                    =  -6.8216121999206E-01
(PID.TID 0000.0001) %MON ke_max                       =   2.5503359940500E-04
(PID.TID 0000.0001) %MON ke_mean                      =   3.0736437630287E-07
(PID.TID 0000.0001) %MON ke_vol                       =   4.6183030367385E+12
(PID.TID 0000.0001) // =======================================================
(PID.TID 0000.0001) // End MONITOR dynamic field statistics
(PID.TID 0000.0001) // =======================================================
(PID.TID 0000.0001) // =======================================================
(PID.TID 0000.0001) // Begin OBCS MONITOR field statistics
(PID.TID 0000.0001) // =======================================================
(PID.TID 0000.0001) %MON obc_N_vVel_max               =  -1.0964419319861E-07
(PID.TID 0000.0001) %MON obc_N_vVel_min               =  -1.0964419319861E-07
(PID.TID 0000.0001) %MON obc_N_vVel_mean              =  -1.0964419319861E-07
(PID.TID 0000.0001) %MON obc_N_vVel_sd                =   1.1849778104646E-14
(PID.TID 0000.0001) %MON obc_N_vVel_Int               =  -7.2365167511084E+00
(PID.TID 0000.0001) // =======================================================
(PID.TID 0000.0001) // End OBCS MONITOR field statistics
(PID.TID 0000.0001) // =======================================================
 cg2d: Sum(rhs),rhsMax =   3.00931376971830E+00  4.53044882554410E+02
(PID.TID 0000.0001)      cg2d_init_res =   3.09466096782608E-06
(PID.TID 0000.0001)      cg2d_iters(min,last) =      -1      74
(PID.TID 0000.0001)      cg2d_last_res =   9.79905218375091E-12
(PID.TID 0000.0001) // =======================================================
(PID.TID 0000.0001) // Begin MONITOR dynamic field statistics
(PID.TID 0000.0001) // =======================================================
(PID.TID 0000.0001) %MON time_tsnumber                =                  1088
(PID.TID 0000.0001) %MON time_secondsf                =   1.0880000000000E+05
(PID.TID 0000.0001) %MON dynstat_eta_max              =   5.7984851153723E+00
(PID.TID 0000.0001) %MON dynstat_eta_min              =  -1.4172090573812E+01
(PID.TID 0000.0001) %MON dynstat_eta_mean             =  -2.5247300062433E+00
(PID.TID 0000.0001) %MON dynstat_eta_sd               =   4.9412660313534E+00
(PID.TID 0000.0001) %MON dynstat_eta_del2             =   1.9058572226847E-01
(PID.TID 0000.0001) %MON dynstat_uvel_max             =   5.5518303566959E-03
(PID.TID 0000.0001) %MON dynstat_uvel_min             =  -2.6154679743380E-02
(PID.TID 0000.0001) %MON dynstat_uvel_mean            =  -2.8753447044746E-11
(PID.TID 0000.0001) %MON dynstat_uvel_sd              =   7.0770168482472E-04
(PID.TID 0000.0001) %MON dynstat_uvel_del2            =   1.0869329416294E-06
(PID.TID 0000.0001) %MON dynstat_vvel_max             =   1.8809676798633E-02
(PID.TID 0000.0001) %MON dynstat_vvel_min             =  -6.9034650209723E-03
(PID.TID 0000.0001) %MON dynstat_vvel_mean            =  -5.7763684445049E-08
(PID.TID 0000.0001) %MON dynstat_vvel_sd              =   3.5538914306012E-04
(PID.TID 0000.0001) %MON dynstat_vvel_del2            =   9.3601559144179E-07
(PID.TID 0000.0001) %MON dynstat_wvel_max             =   1.0619717229567E-03
(PID.TID 0000.0001) %MON dynstat_wvel_min             =  -1.2222899498389E-03
(PID.TID 0000.0001) %MON dynstat_wvel_mean            =   4.2283677066898E-10
(PID.TID 0000.0001) %MON dynstat_wvel_sd              =   1.7530108222205E-05
(PID.TID 0000.0001) %MON dynstat_wvel_del2            =   7.3652471988288E-08
(PID.TID 0000.0001) %MON dynstat_theta_max            =   1.2000000000000E+00
(PID.TID 0000.0001) %MON dynstat_theta_min            =  -1.0000000000000E+00
(PID.TID 0000.0001) %MON dynstat_theta_mean           =   5.6517567673663E-01
(PID.TID 0000.0001) %MON dynstat_theta_sd             =   8.4895945440966E-01
(PID.TID 0000.0001) %MON dynstat_theta_del2           =   2.6311161917516E-06
(PID.TID 0000.0001) %MON dynstat_salt_max             =   3.4700000000000E+01
(PID.TID 0000.0001) %MON dynstat_salt_min             =   3.4000000000000E+01
(PID.TID 0000.0001) %MON dynstat_salt_mean            =   3.4497984238764E+01
(PID.TID 0000.0001) %MON dynstat_salt_sd              =   2.7012018683690E-01
(PID.TID 0000.0001) %MON dynstat_salt_del2            =   1.0399346649456E-06
(PID.TID 0000.0001) %MON advcfl_uvel_max              =   2.6154679743380E-03
(PID.TID 0000.0001) %MON advcfl_vvel_max              =   1.8809676798633E-03
(PID.TID 0000.0001) %MON advcfl_wvel_max              =   6.1114497491943E-03
(PID.TID 0000.0001) %MON advcfl_W_hf_max              =   6.1114497491943E-03
(PID.TID 0000.0001) %MON pe_b_mean                    =  -6.8215956943517E-01
(PID.TID 0000.0001) %MON ke_max                       =   2.5649164794345E-04
(PID.TID 0000.0001) %MON ke_mean                      =   3.0886212984957E-07
(PID.TID 0000.0001) %MON ke_vol                       =   4.6183030702720E+12
(PID.TID 0000.0001) // =======================================================
(PID.TID 0000.0001) // End MONITOR dynamic field statistics
(PID.TID 0000.0001) // =======================================================
(PID.TID 0000.0001) // =======================================================
(PID.TID 0000.0001) // Begin OBCS MONITOR field statistics
(PID.TID 0000.0001) // =======================================================
(PID.TID 0000.0001) %MON obc_N_vVel_max               =  -9.4054391378304E-08
(PID.TID 0000.0001) %MON obc_N_vVel_min               =  -9.4054391378306E-08
(PID.TID 0000.0001) %MON obc_N_vVel_mean              =  -9.4054391378306E-08
(PID.TID 0000.0001) %MON obc_N_vVel_sd                =  -2.0983700078879E-28
(PID.TID 0000.0001) %MON obc_N_vVel_Int               =  -6.2075898309682E+00
(PID.TID 0000.0001) // =======================================================
(PID.TID 0000.0001) // End OBCS MONITOR field statistics
(PID.TID 0000.0001) // =======================================================
 cg2d: Sum(rhs),rhsMax =   3.00930709420281E+00  4.53044877291603E+02
(PID.TID 0000.0001)      cg2d_init_res =   3.09809421053826E-06
(PID.TID 0000.0001)      cg2d_iters(min,last) =      -1      74
(PID.TID 0000.0001)      cg2d_last_res =   9.81869876484835E-12
(PID.TID 0000.0001) // =======================================================
(PID.TID 0000.0001) // Begin MONITOR dynamic field statistics
(PID.TID 0000.0001) // =======================================================
(PID.TID 0000.0001) %MON time_tsnumber                =                  1089
(PID.TID 0000.0001) %MON time_secondsf                =   1.0890000000000E+05
(PID.TID 0000.0001) %MON dynstat_eta_max              =   5.7984879487300E+00
(PID.TID 0000.0001) %MON dynstat_eta_min              =  -1.4172078544438E+01
(PID.TID 0000.0001) %MON dynstat_eta_mean             =  -2.5247243763442E+00
(PID.TID 0000.0001) %MON dynstat_eta_sd               =   4.9412644177443E+00
(PID.TID 0000.0001) %MON dynstat_eta_del2             =   1.9058573850652E-01
(PID.TID 0000.0001) %MON dynstat_uvel_max             =   5.5657028357281E-03
(PID.TID 0000.0001) %MON dynstat_uvel_min             =  -2.6219856883247E-02
(PID.TID 0000.0001) %MON dynstat_uvel_mean            =  -5.2269395032521E-11
(PID.TID 0000.0001) %MON dynstat_uvel_sd              =   7.0949416044972E-04
(PID.TID 0000.0001) %MON dynstat_uvel_del2            =   1.0895954313582E-06
(PID.TID 0000.0001) %MON dynstat_vvel_max             =   1.8847440229424E-02
(PID.TID 0000.0001) %MON dynstat_vvel_min             =  -6.9185167254524E-03
(PID.TID 0000.0001) %MON dynstat_vvel_mean            =  -4.0223850073625E-08
(PID.TID 0000.0001) %MON dynstat_vvel_sd              =   3.5611625288640E-04
(PID.TID 0000.0001) %MON dynstat_vvel_del2            =   9.3804944582427E-07
(PID.TID 0000.0001) %MON dynstat_wvel_max             =   1.0645158923424E-03
(PID.TID 0000.0001) %MON dynstat_wvel_min             =  -1.2259366191230E-03
(PID.TID 0000.0001) %MON dynstat_wvel_mean            =   4.2421449069016E-10
(PID.TID 0000.0001) %MON dynstat_wvel_sd              =   1.7589336003865E-05
(PID.TID 0000.0001) %MON dynstat_wvel_del2            =   7.3910946553454E-08
(PID.TID 0000.0001) %MON dynstat_theta_max            =   1.2000000000000E+00
(PID.TID 0000.0001) %MON dynstat_theta_min            =  -1.0000000000000E+00
(PID.TID 0000.0001) %MON dynstat_theta_mean           =   5.6517506004610E-01
(PID.TID 0000.0001) %MON dynstat_theta_sd             =   8.4895918816661E-01
(PID.TID 0000.0001) %MON dynstat_theta_del2           =   2.6365702073977E-06
(PID.TID 0000.0001) %MON dynstat_salt_max             =   3.4700000000000E+01
(PID.TID 0000.0001) %MON dynstat_salt_min             =   3.4000000000000E+01
(PID.TID 0000.0001) %MON dynstat_salt_mean            =   3.4497983992628E+01
(PID.TID 0000.0001) %MON dynstat_salt_sd              =   2.7012008672256E-01
(PID.TID 0000.0001) %MON dynstat_salt_del2            =   1.0421104101253E-06
(PID.TID 0000.0001) %MON advcfl_uvel_max              =   2.6219856883247E-03
(PID.TID 0000.0001) %MON advcfl_vvel_max              =   1.8847440229424E-03
(PID.TID 0000.0001) %MON advcfl_wvel_max              =   6.1296830956151E-03
(PID.TID 0000.0001) %MON advcfl_W_hf_max              =   6.1296830956151E-03
(PID.TID 0000.0001) %MON pe_b_mean                    =  -6.8215791958137E-01
(PID.TID 0000.0001) %MON ke_max                       =   2.5795683118447E-04
(PID.TID 0000.0001) %MON ke_mean                      =   3.1036706044904E-07
(PID.TID 0000.0001) %MON ke_vol                       =   4.6183031037629E+12
(PID.TID 0000.0001) // =======================================================
(PID.TID 0000.0001) // End MONITOR dynamic field statistics
(PID.TID 0000.0001) // =======================================================
(PID.TID 0000.0001) // =======================================================
(PID.TID 0000.0001) // Begin OBCS MONITOR field statistics
(PID.TID 0000.0001) // =======================================================
(PID.TID 0000.0001) %MON obc_N_vVel_max               =  -7.7460880797610E-08
(PID.TID 0000.0001) %MON obc_N_vVel_min               =  -7.7460880797612E-08
(PID.TID 0000.0001) %MON obc_N_vVel_mean              =  -7.7460880797610E-08
(PID.TID 0000.0001) %MON obc_N_vVel_sd                =   1.7381994324578E-14
(PID.TID 0000.0001) %MON obc_N_vVel_Int               =  -5.1124181326423E+00
(PID.TID 0000.0001) // =======================================================
(PID.TID 0000.0001) // End OBCS MONITOR field statistics
(PID.TID 0000.0001) // =======================================================
 cg2d: Sum(rhs),rhsMax =   3.00930042599207E+00  4.53044872576858E+02
(PID.TID 0000.0001)      cg2d_init_res =   3.10188180258910E-06
(PID.TID 0000.0001)      cg2d_iters(min,last) =      -1      74
(PID.TID 0000.0001)      cg2d_last_res =   9.83811841429654E-12
(PID.TID 0000.0001) // =======================================================
(PID.TID 0000.0001) // Begin MONITOR dynamic field statistics
(PID.TID 0000.0001) // =======================================================
(PID.TID 0000.0001) %MON time_tsnumber                =                  1090
(PID.TID 0000.0001) %MON time_secondsf                =   1.0900000000000E+05
(PID.TID 0000.0001) %MON dynstat_eta_max              =   5.7984907493024E+00
(PID.TID 0000.0001) %MON dynstat_eta_min              =  -1.4172066529100E+01
(PID.TID 0000.0001) %MON dynstat_eta_mean             =  -2.5247187556279E+00
(PID.TID 0000.0001) %MON dynstat_eta_sd               =   4.9412628087411E+00
(PID.TID 0000.0001) %MON dynstat_eta_del2             =   1.9058575481544E-01
(PID.TID 0000.0001) %MON dynstat_uvel_max             =   5.5796069307359E-03
(PID.TID 0000.0001) %MON dynstat_uvel_min             =  -2.6285120074908E-02
(PID.TID 0000.0001) %MON dynstat_uvel_mean            =  -6.7709509752039E-11
(PID.TID 0000.0001) %MON dynstat_uvel_sd              =   7.1129028219967E-04
(PID.TID 0000.0001) %MON dynstat_uvel_del2            =   1.0922644423697E-06
(PID.TID 0000.0001) %MON dynstat_vvel_max             =   1.8885233760353E-02
(PID.TID 0000.0001) %MON dynstat_vvel_min             =  -6.9335918406779E-03
(PID.TID 0000.0001) %MON dynstat_vvel_mean            =  -2.1984262320852E-08
(PID.TID 0000.0001) %MON dynstat_vvel_sd              =   3.5684584828611E-04
(PID.TID 0000.0001) %MON dynstat_vvel_del2            =   9.4009285371663E-07
(PID.TID 0000.0001) %MON dynstat_wvel_max             =   1.0670638545230E-03
(PID.TID 0000.0001) %MON dynstat_wvel_min             =  -1.2295910683664E-03
(PID.TID 0000.0001) %MON dynstat_wvel_mean            =   4.2390708421387E-10
(PID.TID 0000.0001) %MON dynstat_wvel_sd              =   1.7653206646226E-05
(PID.TID 0000.0001) %MON dynstat_wvel_del2            =   7.4191375474142E-08
(PID.TID 0000.0001) %MON dynstat_theta_max            =   1.2000000000000E+00
(PID.TID 0000.0001) %MON dynstat_theta_min            =  -1.0000000000000E+00
(PID.TID 0000.0001) %MON dynstat_theta_mean           =   5.6517444224813E-01
(PID.TID 0000.0001) %MON dynstat_theta_sd             =   8.4895892133828E-01
(PID.TID 0000.0001) %MON dynstat_theta_del2           =   2.6420239385560E-06
(PID.TID 0000.0001) %MON dynstat_salt_max             =   3.4700000000000E+01
(PID.TID 0000.0001) %MON dynstat_salt_min             =   3.4000000000000E+01
(PID.TID 0000.0001) %MON dynstat_salt_mean            =   3.4497983746047E+01
(PID.TID 0000.0001) %MON dynstat_salt_sd              =   2.7011998638458E-01
(PID.TID 0000.0001) %MON dynstat_salt_del2            =   1.0442871341682E-06
(PID.TID 0000.0001) %MON advcfl_uvel_max              =   2.6285120074908E-03
(PID.TID 0000.0001) %MON advcfl_vvel_max              =   1.8885233760353E-03
(PID.TID 0000.0001) %MON advcfl_wvel_max              =   6.1479553418319E-03
(PID.TID 0000.0001) %MON advcfl_W_hf_max              =   6.1479553418319E-03
(PID.TID 0000.0001) %MON pe_b_mean                    =  -6.8215627056364E-01
(PID.TID 0000.0001) %MON ke_max                       =   2.5942917738399E-04
(PID.TID 0000.0001) %MON ke_mean                      =   3.1187910421272E-07
(PID.TID 0000.0001) %MON ke_vol                       =   4.6183031372045E+12
(PID.TID 0000.0001) // =======================================================
(PID.TID 0000.0001) // End MONITOR dynamic field statistics
(PID.TID 0000.0001) // =======================================================
(PID.TID 0000.0001) // =======================================================
(PID.TID 0000.0001) // Begin OBCS MONITOR field statistics
(PID.TID 0000.0001) // =======================================================
(PID.TID 0000.0001) %MON obc_N_vVel_max               =  -6.0055604337263E-08
(PID.TID 0000.0001) %MON obc_N_vVel_min               =  -6.0055604337265E-08
(PID.TID 0000.0001) %MON obc_N_vVel_mean              =  -6.0055604337263E-08
(PID.TID 0000.0001) %MON obc_N_vVel_sd                =   8.7023357152673E-15
(PID.TID 0000.0001) %MON obc_N_vVel_Int               =  -3.9636698862594E+00
(PID.TID 0000.0001) // =======================================================
(PID.TID 0000.0001) // End OBCS MONITOR field statistics
(PID.TID 0000.0001) // =======================================================
 cg2d: Sum(rhs),rhsMax =   3.00929376640390E+00  4.53044868330911E+02
(PID.TID 0000.0001)      cg2d_init_res =   3.10597573428063E-06
(PID.TID 0000.0001)      cg2d_iters(min,last) =      -1      74
(PID.TID 0000.0001)      cg2d_last_res =   9.85740168708375E-12
(PID.TID 0000.0001) // =======================================================
(PID.TID 0000.0001) // Begin MONITOR dynamic field statistics
(PID.TID 0000.0001) // =======================================================
(PID.TID 0000.0001) %MON time_tsnumber                =                  1091
(PID.TID 0000.0001) %MON time_secondsf                =   1.0910000000000E+05
(PID.TID 0000.0001) %MON dynstat_eta_max              =   5.7984935163459E+00
(PID.TID 0000.0001) %MON dynstat_eta_min              =  -1.4172054528703E+01
(PID.TID 0000.0001) %MON dynstat_eta_mean             =  -2.5247131447583E+00
(PID.TID 0000.0001) %MON dynstat_eta_sd               =   4.9412612043405E+00
(PID.TID 0000.0001) %MON dynstat_eta_del2             =   1.9058577119346E-01
(PID.TID 0000.0001) %MON dynstat_uvel_max             =   5.5935426914075E-03
(PID.TID 0000.0001) %MON dynstat_uvel_min             =  -2.6350469094099E-02
(PID.TID 0000.0001) %MON dynstat_uvel_mean            =  -7.4655072733450E-11
(PID.TID 0000.0001) %MON dynstat_uvel_sd              =   7.1309005842679E-04
(PID.TID 0000.0001) %MON dynstat_uvel_del2            =   1.0949400010278E-06
(PID.TID 0000.0001) %MON dynstat_vvel_max             =   1.8923057263239E-02
(PID.TID 0000.0001) %MON dynstat_vvel_min             =  -6.9486903721980E-03
(PID.TID 0000.0001) %MON dynstat_vvel_mean            =  -3.2582344705664E-09
(PID.TID 0000.0001) %MON dynstat_vvel_sd              =   3.5757760357837E-04
(PID.TID 0000.0001) %MON dynstat_vvel_del2            =   9.4214362281379E-07
(PID.TID 0000.0001) %MON dynstat_wvel_max             =   1.0696156080600E-03
(PID.TID 0000.0001) %MON dynstat_wvel_min             =  -1.2332532886809E-03
(PID.TID 0000.0001) %MON dynstat_wvel_mean            =   4.2191239495988E-10
(PID.TID 0000.0001) %MON dynstat_wvel_sd              =   1.7720578093156E-05
(PID.TID 0000.0001) %MON dynstat_wvel_del2            =   7.4488717526912E-08
(PID.TID 0000.0001) %MON dynstat_theta_max            =   1.2000000000000E+00
(PID.TID 0000.0001) %MON dynstat_theta_min            =  -1.0000000000000E+00
(PID.TID 0000.0001) %MON dynstat_theta_mean           =   5.6517382334138E-01
(PID.TID 0000.0001) %MON dynstat_theta_sd             =   8.4895865392367E-01
(PID.TID 0000.0001) %MON dynstat_theta_del2           =   2.6474803889808E-06
(PID.TID 0000.0001) %MON dynstat_salt_max             =   3.4700000000000E+01
(PID.TID 0000.0001) %MON dynstat_salt_min             =   3.4000000000000E+01
(PID.TID 0000.0001) %MON dynstat_salt_mean            =   3.4497983499020E+01
(PID.TID 0000.0001) %MON dynstat_salt_sd              =   2.7011988582258E-01
(PID.TID 0000.0001) %MON dynstat_salt_del2            =   1.0464656129288E-06
(PID.TID 0000.0001) %MON advcfl_uvel_max              =   2.6350469094099E-03
(PID.TID 0000.0001) %MON advcfl_vvel_max              =   1.8923057263239E-03
(PID.TID 0000.0001) %MON advcfl_wvel_max              =   6.1662664434047E-03
(PID.TID 0000.0001) %MON advcfl_W_hf_max              =   6.1662664434047E-03
(PID.TID 0000.0001) %MON pe_b_mean                    =  -6.8215462246854E-01
(PID.TID 0000.0001) %MON ke_max                       =   2.6090871483460E-04
(PID.TID 0000.0001) %MON ke_mean                      =   3.1339817528822E-07
(PID.TID 0000.0001) %MON ke_vol                       =   4.6183031705916E+12
(PID.TID 0000.0001) // =======================================================
(PID.TID 0000.0001) // End MONITOR dynamic field statistics
(PID.TID 0000.0001) // =======================================================
(PID.TID 0000.0001) // =======================================================
(PID.TID 0000.0001) // Begin OBCS MONITOR field statistics
(PID.TID 0000.0001) // =======================================================
(PID.TID 0000.0001) %MON obc_N_vVel_max               =  -4.2041572714883E-08
(PID.TID 0000.0001) %MON obc_N_vVel_min               =  -4.2041572714883E-08
(PID.TID 0000.0001) %MON obc_N_vVel_mean              =  -4.2041572714883E-08
(PID.TID 0000.0001) %MON obc_N_vVel_sd                =   4.8240436051118E-15
(PID.TID 0000.0001) %MON obc_N_vVel_Int               =  -2.7747437991822E+00
(PID.TID 0000.0001) // =======================================================
(PID.TID 0000.0001) // End OBCS MONITOR field statistics
(PID.TID 0000.0001) // =======================================================
 cg2d: Sum(rhs),rhsMax =   3.00928711651353E+00  4.53044864468940E+02
(PID.TID 0000.0001)      cg2d_init_res =   3.11040819889807E-06
(PID.TID 0000.0001)      cg2d_iters(min,last) =      -1      74
(PID.TID 0000.0001)      cg2d_last_res =   9.87654194385236E-12
(PID.TID 0000.0001) // =======================================================
(PID.TID 0000.0001) // Begin MONITOR dynamic field statistics
(PID.TID 0000.0001) // =======================================================
(PID.TID 0000.0001) %MON time_tsnumber                =                  1092
(PID.TID 0000.0001) %MON time_secondsf                =   1.0920000000000E+05
(PID.TID 0000.0001) %MON dynstat_eta_max              =   5.7984962495076E+00
(PID.TID 0000.0001) %MON dynstat_eta_min              =  -1.4172042543647E+01
(PID.TID 0000.0001) %MON dynstat_eta_mean             =  -2.5247075441648E+00
(PID.TID 0000.0001) %MON dynstat_eta_sd               =   4.9412596044577E+00
(PID.TID 0000.0001) %MON dynstat_eta_del2             =   1.9058578763887E-01
(PID.TID 0000.0001) %MON dynstat_uvel_max             =   5.6075101687574E-03
(PID.TID 0000.0001) %MON dynstat_uvel_min             =  -2.6415903716660E-02
(PID.TID 0000.0001) %MON dynstat_uvel_mean            =  -7.2779624303661E-11
(PID.TID 0000.0001) %MON dynstat_uvel_sd              =   7.1489349753836E-04
(PID.TID 0000.0001) %MON dynstat_uvel_del2            =   1.0976221334372E-06
(PID.TID 0000.0001) %MON dynstat_vvel_max             =   1.8960910608790E-02
(PID.TID 0000.0001) %MON dynstat_vvel_min             =  -6.9638123258722E-03
(PID.TID 0000.0001) %MON dynstat_vvel_mean            =   1.5733572377020E-08
(PID.TID 0000.0001) %MON dynstat_vvel_sd              =   3.5831114807063E-04
(PID.TID 0000.0001) %MON dynstat_vvel_del2            =   9.4419931953733E-07
(PID.TID 0000.0001) %MON dynstat_wvel_max             =   1.0721711514964E-03
(PID.TID 0000.0001) %MON dynstat_wvel_min             =  -1.2369232716073E-03
(PID.TID 0000.0001) %MON dynstat_wvel_mean            =   4.1824687424867E-10
(PID.TID 0000.0001) %MON dynstat_wvel_sd              =   1.7790123825909E-05
(PID.TID 0000.0001) %MON dynstat_wvel_del2            =   7.4796799594535E-08
(PID.TID 0000.0001) %MON dynstat_theta_max            =   1.2000000000000E+00
(PID.TID 0000.0001) %MON dynstat_theta_min            =  -1.0000000000000E+00
(PID.TID 0000.0001) %MON dynstat_theta_mean           =   5.6517320332440E-01
(PID.TID 0000.0001) %MON dynstat_theta_sd             =   8.4895838592235E-01
(PID.TID 0000.0001) %MON dynstat_theta_del2           =   2.6529428001994E-06
(PID.TID 0000.0001) %MON dynstat_salt_max             =   3.4700000000000E+01
(PID.TID 0000.0001) %MON dynstat_salt_min             =   3.4000000000000E+01
(PID.TID 0000.0001) %MON dynstat_salt_mean            =   3.4497983251547E+01
(PID.TID 0000.0001) %MON dynstat_salt_sd              =   2.7011978503598E-01
(PID.TID 0000.0001) %MON dynstat_salt_del2            =   1.0486466343491E-06
(PID.TID 0000.0001) %MON advcfl_uvel_max              =   2.6415903716660E-03
(PID.TID 0000.0001) %MON advcfl_vvel_max              =   1.8960910608790E-03
(PID.TID 0000.0001) %MON advcfl_wvel_max              =   6.1846163580365E-03
(PID.TID 0000.0001) %MON advcfl_W_hf_max              =   6.1846163580365E-03
(PID.TID 0000.0001) %MON pe_b_mean                    =  -6.8215297533484E-01
(PID.TID 0000.0001) %MON ke_max                       =   2.6239547194539E-04
(PID.TID 0000.0001) %MON ke_mean                      =   3.1492417087978E-07
(PID.TID 0000.0001) %MON ke_vol                       =   4.6183032039201E+12
(PID.TID 0000.0001) // =======================================================
(PID.TID 0000.0001) // End MONITOR dynamic field statistics
(PID.TID 0000.0001) // =======================================================
(PID.TID 0000.0001) // =======================================================
(PID.TID 0000.0001) // Begin OBCS MONITOR field statistics
(PID.TID 0000.0001) // =======================================================
(PID.TID 0000.0001) %MON obc_N_vVel_max               =  -2.3630487546946E-08
(PID.TID 0000.0001) %MON obc_N_vVel_min               =  -2.3630487546946E-08
(PID.TID 0000.0001) %MON obc_N_vVel_mean              =  -2.3630487546946E-08
(PID.TID 0000.0001) %MON obc_N_vVel_sd                =   4.5505602690275E-15
(PID.TID 0000.0001) %MON obc_N_vVel_Int               =  -1.5596121780984E+00
(PID.TID 0000.0001) // =======================================================
(PID.TID 0000.0001) // End OBCS MONITOR field statistics
(PID.TID 0000.0001) // =======================================================
 cg2d: Sum(rhs),rhsMax =   3.00928047713850E+00  4.53044860901367E+02
(PID.TID 0000.0001)      cg2d_init_res =   3.11516221209113E-06
(PID.TID 0000.0001)      cg2d_iters(min,last) =      -1      74
(PID.TID 0000.0001)      cg2d_last_res =   9.89582937454688E-12
(PID.TID 0000.0001) // =======================================================
(PID.TID 0000.0001) // Begin MONITOR dynamic field statistics
(PID.TID 0000.0001) // =======================================================
(PID.TID 0000.0001) %MON time_tsnumber                =                  1093
(PID.TID 0000.0001) %MON time_secondsf                =   1.0930000000000E+05
(PID.TID 0000.0001) %MON dynstat_eta_max              =   5.7984989488435E+00
(PID.TID 0000.0001) %MON dynstat_eta_min              =  -1.4172030574019E+01
(PID.TID 0000.0001) %MON dynstat_eta_mean             =  -2.5247019540341E+00
(PID.TID 0000.0001) %MON dynstat_eta_sd               =   4.9412580089226E+00
(PID.TID 0000.0001) %MON dynstat_eta_del2             =   1.9058580414985E-01
(PID.TID 0000.0001) %MON dynstat_uvel_max             =   5.6215094126699E-03
(PID.TID 0000.0001) %MON dynstat_uvel_min             =  -2.6481423717390E-02
(PID.TID 0000.0001) %MON dynstat_uvel_mean            =  -6.1855018562548E-11
(PID.TID 0000.0001) %MON dynstat_uvel_sd              =   7.1670060796881E-04
(PID.TID 0000.0001) %MON dynstat_uvel_del2            =   1.1003108701159E-06
(PID.TID 0000.0001) %MON dynstat_vvel_max             =   1.8998793667028E-02
(PID.TID 0000.0001) %MON dynstat_vvel_min             =  -6.9789577075996E-03
(PID.TID 0000.0001) %MON dynstat_vvel_mean            =   3.4765796363126E-08
(PID.TID 0000.0001) %MON dynstat_vvel_sd              =   3.5904608358644E-04
(PID.TID 0000.0001) %MON dynstat_vvel_del2            =   9.4625737603357E-07
(PID.TID 0000.0001) %MON dynstat_wvel_max             =   1.0747304833728E-03
(PID.TID 0000.0001) %MON dynstat_wvel_min             =  -1.2406010081086E-03
(PID.TID 0000.0001) %MON dynstat_wvel_mean            =   4.1294774803044E-10
(PID.TID 0000.0001) %MON dynstat_wvel_sd              =   1.7860393288544E-05
(PID.TID 0000.0001) %MON dynstat_wvel_del2            =   7.5108562179734E-08
(PID.TID 0000.0001) %MON dynstat_theta_max            =   1.2000000000000E+00
(PID.TID 0000.0001) %MON dynstat_theta_min            =  -1.0000000000000E+00
(PID.TID 0000.0001) %MON dynstat_theta_mean           =   5.6517258219549E-01
(PID.TID 0000.0001) %MON dynstat_theta_sd             =   8.4895811733454E-01
(PID.TID 0000.0001) %MON dynstat_theta_del2           =   2.6584147802344E-06
(PID.TID 0000.0001) %MON dynstat_salt_max             =   3.4700000000000E+01
(PID.TID 0000.0001) %MON dynstat_salt_min             =   3.4000000000000E+01
(PID.TID 0000.0001) %MON dynstat_salt_mean            =   3.4497983003628E+01
(PID.TID 0000.0001) %MON dynstat_salt_sd              =   2.7011968402504E-01
(PID.TID 0000.0001) %MON dynstat_salt_del2            =   1.0508312075151E-06
(PID.TID 0000.0001) %MON advcfl_uvel_max              =   2.6481423717390E-03
(PID.TID 0000.0001) %MON advcfl_vvel_max              =   1.8998793667028E-03
(PID.TID 0000.0001) %MON advcfl_wvel_max              =   6.2030050405428E-03
(PID.TID 0000.0001) %MON advcfl_W_hf_max              =   6.2030050405428E-03
(PID.TID 0000.0001) %MON pe_b_mean                    =  -6.8215132915240E-01
(PID.TID 0000.0001) %MON ke_max                       =   2.6388947720634E-04
(PID.TID 0000.0001) %MON ke_mean                      =   3.1645697734897E-07
(PID.TID 0000.0001) %MON ke_vol                       =   4.6183032371877E+12
(PID.TID 0000.0001) // =======================================================
(PID.TID 0000.0001) // End MONITOR dynamic field statistics
(PID.TID 0000.0001) // =======================================================
(PID.TID 0000.0001) // =======================================================
(PID.TID 0000.0001) // Begin OBCS MONITOR field statistics
(PID.TID 0000.0001) // =======================================================
(PID.TID 0000.0001) %MON obc_N_vVel_max               =  -5.0402896238426E-09
(PID.TID 0000.0001) %MON obc_N_vVel_min               =  -5.0402896238427E-09
(PID.TID 0000.0001) %MON obc_N_vVel_mean              =  -5.0402896238426E-09
(PID.TID 0000.0001) %MON obc_N_vVel_sd                =   1.0677783136388E-15
(PID.TID 0000.0001) %MON obc_N_vVel_Int               =  -3.3265911517361E-01
(PID.TID 0000.0001) // =======================================================
(PID.TID 0000.0001) // End OBCS MONITOR field statistics
(PID.TID 0000.0001) // =======================================================
 cg2d: Sum(rhs),rhsMax =   3.00927384882910E+00  4.53044857534709E+02
(PID.TID 0000.0001)      cg2d_init_res =   3.12020886104281E-06
(PID.TID 0000.0001)      cg2d_iters(min,last) =      -1      74
(PID.TID 0000.0001)      cg2d_last_res =   9.91472615460605E-12
(PID.TID 0000.0001) // =======================================================
(PID.TID 0000.0001) // Begin MONITOR dynamic field statistics
(PID.TID 0000.0001) // =======================================================
(PID.TID 0000.0001) %MON time_tsnumber                =                  1094
(PID.TID 0000.0001) %MON time_secondsf                =   1.0940000000000E+05
(PID.TID 0000.0001) %MON dynstat_eta_max              =   5.7985016148239E+00
(PID.TID 0000.0001) %MON dynstat_eta_min              =  -1.4172018619390E+01
(PID.TID 0000.0001) %MON dynstat_eta_mean             =  -2.5246963743069E+00
(PID.TID 0000.0001) %MON dynstat_eta_sd               =   4.9412564174760E+00
(PID.TID 0000.0001) %MON dynstat_eta_del2             =   1.9058582072375E-01
(PID.TID 0000.0001) %MON dynstat_uvel_max             =   5.6355404726105E-03
(PID.TID 0000.0001) %MON dynstat_uvel_min             =  -2.6547028870577E-02
(PID.TID 0000.0001) %MON dynstat_uvel_mean            =  -4.1763463370314E-11
(PID.TID 0000.0001) %MON dynstat_uvel_sd              =   7.1851139807839E-04
(PID.TID 0000.0001) %MON dynstat_uvel_del2            =   1.1030062341563E-06
(PID.TID 0000.0001) %MON dynstat_vvel_max             =   1.9036706307560E-02
(PID.TID 0000.0001) %MON dynstat_vvel_min             =  -6.9941265224926E-03
(PID.TID 0000.0001) %MON dynstat_vvel_mean            =   5.3611122185304E-08
(PID.TID 0000.0001) %MON dynstat_vvel_sd              =   3.5978200384076E-04
(PID.TID 0000.0001) %MON dynstat_vvel_del2            =   9.4831520986639E-07
(PID.TID 0000.0001) %MON dynstat_wvel_max             =   1.0772936021939E-03
(PID.TID 0000.0001) %MON dynstat_wvel_min             =  -1.2442864890557E-03
(PID.TID 0000.0001) %MON dynstat_wvel_mean            =   4.0607249946606E-10
(PID.TID 0000.0001) %MON dynstat_wvel_sd              =   1.7929880542466E-05
(PID.TID 0000.0001) %MON dynstat_wvel_del2            =   7.5416381754054E-08
(PID.TID 0000.0001) %MON dynstat_theta_max            =   1.2000000000000E+00
(PID.TID 0000.0001) %MON dynstat_theta_min            =  -1.0000000000000E+00
(PID.TID 0000.0001) %MON dynstat_theta_mean           =   5.6517195995277E-01
(PID.TID 0000.0001) %MON dynstat_theta_sd             =   8.4895784816010E-01
(PID.TID 0000.0001) %MON dynstat_theta_del2           =   2.6639000334346E-06
(PID.TID 0000.0001) %MON dynstat_salt_max             =   3.4700000000000E+01
(PID.TID 0000.0001) %MON dynstat_salt_min             =   3.4000000000000E+01
(PID.TID 0000.0001) %MON dynstat_salt_mean            =   3.4497982755261E+01
(PID.TID 0000.0001) %MON dynstat_salt_sd              =   2.7011958278953E-01
(PID.TID 0000.0001) %MON dynstat_salt_del2            =   1.0530202695571E-06
(PID.TID 0000.0001) %MON advcfl_uvel_max              =   2.6547028870577E-03
(PID.TID 0000.0001) %MON advcfl_vvel_max              =   1.9036706307560E-03
(PID.TID 0000.0001) %MON advcfl_wvel_max              =   6.2214324452786E-03
(PID.TID 0000.0001) %MON advcfl_W_hf_max              =   6.2214324452786E-03
(PID.TID 0000.0001) %MON pe_b_mean                    =  -6.8214968386209E-01
(PID.TID 0000.0001) %MON ke_max                       =   2.6539075920883E-04
(PID.TID 0000.0001) %MON ke_mean                      =   3.1799647700678E-07
(PID.TID 0000.0001) %MON ke_vol                       =   4.6183032703930E+12
(PID.TID 0000.0001) // =======================================================
(PID.TID 0000.0001) // End MONITOR dynamic field statistics
(PID.TID 0000.0001) // =======================================================
(PID.TID 0000.0001) // =======================================================
(PID.TID 0000.0001) // Begin OBCS MONITOR field statistics
(PID.TID 0000.0001) // =======================================================
(PID.TID 0000.0001) %MON obc_N_vVel_max               =   1.3507526870096E-08
(PID.TID 0000.0001) %MON obc_N_vVel_min               =   1.3507526870095E-08
(PID.TID 0000.0001) %MON obc_N_vVel_mean              =   1.3507526870096E-08
(PID.TID 0000.0001) %MON obc_N_vVel_sd                =  -9.9593689284153E-30
(PID.TID 0000.0001) %MON obc_N_vVel_Int               =   8.9149677342631E-01
(PID.TID 0000.0001) // =======================================================
(PID.TID 0000.0001) // End OBCS MONITOR field statistics
(PID.TID 0000.0001) // =======================================================
 cg2d: Sum(rhs),rhsMax =   3.00926723185811E+00  4.53044854272967E+02
(PID.TID 0000.0001)      cg2d_init_res =   3.12550737548422E-06
(PID.TID 0000.0001)      cg2d_iters(min,last) =      -1      74
(PID.TID 0000.0001)      cg2d_last_res =   9.93358875659868E-12
(PID.TID 0000.0001) // =======================================================
(PID.TID 0000.0001) // Begin MONITOR dynamic field statistics
(PID.TID 0000.0001) // =======================================================
(PID.TID 0000.0001) %MON time_tsnumber                =                  1095
(PID.TID 0000.0001) %MON time_secondsf                =   1.0950000000000E+05
(PID.TID 0000.0001) %MON dynstat_eta_max              =   5.7985042483006E+00
(PID.TID 0000.0001) %MON dynstat_eta_min              =  -1.4172006678893E+01
(PID.TID 0000.0001) %MON dynstat_eta_mean             =  -2.5246908046770E+00
(PID.TID 0000.0001) %MON dynstat_eta_sd               =   4.9412548297776E+00
(PID.TID 0000.0001) %MON dynstat_eta_del2             =   1.9058583735797E-01
(PID.TID 0000.0001) %MON dynstat_uvel_max             =   5.6496033976785E-03
(PID.TID 0000.0001) %MON dynstat_uvel_min             =  -2.6612718950325E-02
(PID.TID 0000.0001) %MON dynstat_uvel_mean            =  -1.2496329139622E-11
(PID.TID 0000.0001) %MON dynstat_uvel_sd              =   7.2032587615055E-04
(PID.TID 0000.0001) %MON dynstat_uvel_del2            =   1.1057082474890E-06
(PID.TID 0000.0001) %MON dynstat_vvel_max             =   1.9074648400021E-02
(PID.TID 0000.0001) %MON dynstat_vvel_min             =  -7.0093187748990E-03
(PID.TID 0000.0001) %MON dynstat_vvel_mean            =   7.2043075938768E-08
(PID.TID 0000.0001) %MON dynstat_vvel_sd              =   3.6051851443538E-04
(PID.TID 0000.0001) %MON dynstat_vvel_del2            =   9.5037035464912E-07
(PID.TID 0000.0001) %MON dynstat_wvel_max             =   1.0798605064426E-03
(PID.TID 0000.0001) %MON dynstat_wvel_min             =  -1.2479797052365E-03
(PID.TID 0000.0001) %MON dynstat_wvel_mean            =   3.9769801101594E-10
(PID.TID 0000.0001) %MON dynstat_wvel_sd              =   1.7997097794800E-05
(PID.TID 0000.0001) %MON dynstat_wvel_del2            =   7.5712454879601E-08
(PID.TID 0000.0001) %MON dynstat_theta_max            =   1.2000000000000E+00
(PID.TID 0000.0001) %MON dynstat_theta_min            =  -1.0000000000000E+00
(PID.TID 0000.0001) %MON dynstat_theta_mean           =   5.6517133659426E-01
(PID.TID 0000.0001) %MON dynstat_theta_sd             =   8.4895757840053E-01
(PID.TID 0000.0001) %MON dynstat_theta_del2           =   2.6694019996322E-06
(PID.TID 0000.0001) %MON dynstat_salt_max             =   3.4700000000000E+01
(PID.TID 0000.0001) %MON dynstat_salt_min             =   3.4000000000000E+01
(PID.TID 0000.0001) %MON dynstat_salt_mean            =   3.4497982506446E+01
(PID.TID 0000.0001) %MON dynstat_salt_sd              =   2.7011948132973E-01
(PID.TID 0000.0001) %MON dynstat_salt_del2            =   1.0552146779623E-06
(PID.TID 0000.0001) %MON advcfl_uvel_max              =   2.6612718950325E-03
(PID.TID 0000.0001) %MON advcfl_vvel_max              =   1.9074648400021E-03
(PID.TID 0000.0001) %MON advcfl_wvel_max              =   6.2398985261825E-03
(PID.TID 0000.0001) %MON advcfl_W_hf_max              =   6.2398985261825E-03
(PID.TID 0000.0001) %MON pe_b_mean                    =  -6.8214803935612E-01
(PID.TID 0000.0001) %MON ke_max                       =   2.6689934665076E-04
(PID.TID 0000.0001) %MON ke_mean                      =   3.1954255528535E-07
(PID.TID 0000.0001) %MON ke_vol                       =   4.6183033035366E+12
(PID.TID 0000.0001) // =======================================================
(PID.TID 0000.0001) // End MONITOR dynamic field statistics
(PID.TID 0000.0001) // =======================================================
(PID.TID 0000.0001) // =======================================================
(PID.TID 0000.0001) // Begin OBCS MONITOR field statistics
(PID.TID 0000.0001) // =======================================================
(PID.TID 0000.0001) %MON obc_N_vVel_max               =   3.1790586043751E-08
(PID.TID 0000.0001) %MON obc_N_vVel_min               =   3.1790586043750E-08
(PID.TID 0000.0001) %MON obc_N_vVel_mean              =   3.1790586043750E-08
(PID.TID 0000.0001) %MON obc_N_vVel_sd                =   5.5644218504643E-15
(PID.TID 0000.0001) %MON obc_N_vVel_Int               =   2.0981786788875E+00
(PID.TID 0000.0001) // =======================================================
(PID.TID 0000.0001) // End OBCS MONITOR field statistics
(PID.TID 0000.0001) // =======================================================
 cg2d: Sum(rhs),rhsMax =   3.00926062621626E+00  4.53044851018683E+02
(PID.TID 0000.0001)      cg2d_init_res =   3.13100125396140E-06
(PID.TID 0000.0001)      cg2d_iters(min,last) =      -1      74
(PID.TID 0000.0001)      cg2d_last_res =   9.95238380216918E-12
(PID.TID 0000.0001) // =======================================================
(PID.TID 0000.0001) // Begin MONITOR dynamic field statistics
(PID.TID 0000.0001) // =======================================================
(PID.TID 0000.0001) %MON time_tsnumber                =                  1096
(PID.TID 0000.0001) %MON time_secondsf                =   1.0960000000000E+05
(PID.TID 0000.0001) %MON dynstat_eta_max              =   5.7985068505412E+00
(PID.TID 0000.0001) %MON dynstat_eta_min              =  -1.4171994751225E+01
(PID.TID 0000.0001) %MON dynstat_eta_mean             =  -2.5246852445936E+00
(PID.TID 0000.0001) %MON dynstat_eta_sd               =   4.9412532454066E+00
(PID.TID 0000.0001) %MON dynstat_eta_del2             =   1.9058585404952E-01
(PID.TID 0000.0001) %MON dynstat_uvel_max             =   5.6636982363951E-03
(PID.TID 0000.0001) %MON dynstat_uvel_min             =  -2.6678493730396E-02
(PID.TID 0000.0001) %MON dynstat_uvel_mean            =   2.5847421921726E-11
(PID.TID 0000.0001) %MON dynstat_uvel_sd              =   7.2214405033089E-04
(PID.TID 0000.0001) %MON dynstat_uvel_del2            =   1.1084169295763E-06
(PID.TID 0000.0001) %MON dynstat_vvel_max             =   1.9112619814317E-02
(PID.TID 0000.0001) %MON dynstat_vvel_min             =  -7.0245344682158E-03
(PID.TID 0000.0001) %MON dynstat_vvel_mean            =   8.9838849313918E-08
(PID.TID 0000.0001) %MON dynstat_vvel_sd              =   3.6125525275443E-04
(PID.TID 0000.0001) %MON dynstat_vvel_del2            =   9.5242059171685E-07
(PID.TID 0000.0001) %MON dynstat_wvel_max             =   1.0824311945591E-03
(PID.TID 0000.0001) %MON dynstat_wvel_min             =  -1.2516806473179E-03
(PID.TID 0000.0001) %MON dynstat_wvel_mean            =   3.8792034154670E-10
(PID.TID 0000.0001) %MON dynstat_wvel_sd              =   1.8060649766712E-05
(PID.TID 0000.0001) %MON dynstat_wvel_del2            =   7.5989219340739E-08
(PID.TID 0000.0001) %MON dynstat_theta_max            =   1.2000000000000E+00
(PID.TID 0000.0001) %MON dynstat_theta_min            =  -1.0000000000000E+00
(PID.TID 0000.0001) %MON dynstat_theta_mean           =   5.6517071211784E-01
(PID.TID 0000.0001) %MON dynstat_theta_sd             =   8.4895730805778E-01
(PID.TID 0000.0001) %MON dynstat_theta_del2           =   2.6749238158856E-06
(PID.TID 0000.0001) %MON dynstat_salt_max             =   3.4700000000000E+01
(PID.TID 0000.0001) %MON dynstat_salt_min             =   3.4000000000000E+01
(PID.TID 0000.0001) %MON dynstat_salt_mean            =   3.4497982257183E+01
(PID.TID 0000.0001) %MON dynstat_salt_sd              =   2.7011937964620E-01
(PID.TID 0000.0001) %MON dynstat_salt_del2            =   1.0574152959279E-06
(PID.TID 0000.0001) %MON advcfl_uvel_max              =   2.6678493730396E-03
(PID.TID 0000.0001) %MON advcfl_vvel_max              =   1.9112619814317E-03
(PID.TID 0000.0001) %MON advcfl_wvel_max              =   6.2584032365897E-03
(PID.TID 0000.0001) %MON advcfl_W_hf_max              =   6.2584032365897E-03
(PID.TID 0000.0001) %MON pe_b_mean                    =  -6.8214639547908E-01
(PID.TID 0000.0001) %MON ke_max                       =   2.6841526833447E-04
(PID.TID 0000.0001) %MON ke_mean                      =   3.2109510792317E-07
(PID.TID 0000.0001) %MON ke_vol                       =   4.6183033366202E+12
(PID.TID 0000.0001) // =======================================================
(PID.TID 0000.0001) // End MONITOR dynamic field statistics
(PID.TID 0000.0001) // =======================================================
(PID.TID 0000.0001) // =======================================================
(PID.TID 0000.0001) // Begin OBCS MONITOR field statistics
(PID.TID 0000.0001) // =======================================================
(PID.TID 0000.0001) %MON obc_N_vVel_max               =   4.9588401623014E-08
(PID.TID 0000.0001) %MON obc_N_vVel_min               =   4.9588401623013E-08
(PID.TID 0000.0001) %MON obc_N_vVel_mean              =   4.9588401623013E-08
(PID.TID 0000.0001) %MON obc_N_vVel_sd                =  -1.8143800820083E-29
(PID.TID 0000.0001) %MON obc_N_vVel_Int               =   3.2728345071189E+00
(PID.TID 0000.0001) // =======================================================
(PID.TID 0000.0001) // End OBCS MONITOR field statistics
(PID.TID 0000.0001) // =======================================================
 cg2d: Sum(rhs),rhsMax =   3.00925403161571E+00  4.53044847673388E+02
(PID.TID 0000.0001)      cg2d_init_res =   3.13665844416744E-06
(PID.TID 0000.0001)      cg2d_iters(min,last) =      -1      74
(PID.TID 0000.0001)      cg2d_last_res =   9.97123145202894E-12
(PID.TID 0000.0001) // =======================================================
(PID.TID 0000.0001) // Begin MONITOR dynamic field statistics
(PID.TID 0000.0001) // =======================================================
(PID.TID 0000.0001) %MON time_tsnumber                =                  1097
(PID.TID 0000.0001) %MON time_secondsf                =   1.0970000000000E+05
(PID.TID 0000.0001) %MON dynstat_eta_max              =   5.7985094231763E+00
(PID.TID 0000.0001) %MON dynstat_eta_min              =  -1.4171982834648E+01
(PID.TID 0000.0001) %MON dynstat_eta_mean             =  -2.5246796932664E+00
(PID.TID 0000.0001) %MON dynstat_eta_sd               =   4.9412516638709E+00
(PID.TID 0000.0001) %MON dynstat_eta_del2             =   1.9058587079539E-01
(PID.TID 0000.0001) %MON dynstat_uvel_max             =   5.6778250367140E-03
(PID.TID 0000.0001) %MON dynstat_uvel_min             =  -2.6744352984561E-02
(PID.TID 0000.0001) %MON dynstat_uvel_mean            =   7.3039268984397E-11
(PID.TID 0000.0001) %MON dynstat_uvel_sd              =   7.2396592858588E-04
(PID.TID 0000.0001) %MON dynstat_uvel_del2            =   1.1111322972329E-06
(PID.TID 0000.0001) %MON dynstat_vvel_max             =   1.9150620421148E-02
(PID.TID 0000.0001) %MON dynstat_vvel_min             =  -7.0397736045926E-03
(PID.TID 0000.0001) %MON dynstat_vvel_mean            =   1.0678210543180E-07
(PID.TID 0000.0001) %MON dynstat_vvel_sd              =   3.6199190651482E-04
(PID.TID 0000.0001) %MON dynstat_vvel_del2            =   9.5446407698994E-07
(PID.TID 0000.0001) %MON dynstat_wvel_max             =   1.0850056649414E-03
(PID.TID 0000.0001) %MON dynstat_wvel_min             =  -1.2553893059124E-03
(PID.TID 0000.0001) %MON dynstat_wvel_mean            =   3.7685315773887E-10
(PID.TID 0000.0001) %MON dynstat_wvel_sd              =   1.8119305023570E-05
(PID.TID 0000.0001) %MON dynstat_wvel_del2            =   7.6239786653037E-08
(PID.TID 0000.0001) %MON dynstat_theta_max            =   1.2000000000000E+00
(PID.TID 0000.0001) %MON dynstat_theta_min            =  -1.0000000000000E+00
(PID.TID 0000.0001) %MON dynstat_theta_mean           =   5.6517008652134E-01
(PID.TID 0000.0001) %MON dynstat_theta_sd             =   8.4895703713391E-01
(PID.TID 0000.0001) %MON dynstat_theta_del2           =   2.6804684908032E-06
(PID.TID 0000.0001) %MON dynstat_salt_max             =   3.4700000000000E+01
(PID.TID 0000.0001) %MON dynstat_salt_min             =   3.4000000000000E+01
(PID.TID 0000.0001) %MON dynstat_salt_mean            =   3.4497982007469E+01
(PID.TID 0000.0001) %MON dynstat_salt_sd              =   2.7011927773949E-01
(PID.TID 0000.0001) %MON dynstat_salt_del2            =   1.0596228211548E-06
(PID.TID 0000.0001) %MON advcfl_uvel_max              =   2.6744352984561E-03
(PID.TID 0000.0001) %MON advcfl_vvel_max              =   1.9150620421148E-03
(PID.TID 0000.0001) %MON advcfl_wvel_max              =   6.2769465295621E-03
(PID.TID 0000.0001) %MON advcfl_W_hf_max              =   6.2769465295621E-03
(PID.TID 0000.0001) %MON pe_b_mean                    =  -6.8214475202955E-01
(PID.TID 0000.0001) %MON ke_max                       =   2.6993855316679E-04
(PID.TID 0000.0001) %MON ke_mean                      =   3.2265404776714E-07
(PID.TID 0000.0001) %MON ke_vol                       =   4.6183033696471E+12
(PID.TID 0000.0001) // =======================================================
(PID.TID 0000.0001) // End MONITOR dynamic field statistics
(PID.TID 0000.0001) // =======================================================
(PID.TID 0000.0001) // =======================================================
(PID.TID 0000.0001) // Begin OBCS MONITOR field statistics
(PID.TID 0000.0001) // =======================================================
(PID.TID 0000.0001) %MON obc_N_vVel_max               =   6.6685129195368E-08
(PID.TID 0000.0001) %MON obc_N_vVel_min               =   6.6685129195366E-08
(PID.TID 0000.0001) %MON obc_N_vVel_mean              =   6.6685129195366E-08
(PID.TID 0000.0001) %MON obc_N_vVel_sd                =   1.4127342602943E-14
(PID.TID 0000.0001) %MON obc_N_vVel_Int               =   4.4012185268941E+00
(PID.TID 0000.0001) // =======================================================
(PID.TID 0000.0001) // End OBCS MONITOR field statistics
(PID.TID 0000.0001) // =======================================================
 cg2d: Sum(rhs),rhsMax =   3.00924744748558E+00  4.53044844139528E+02
(PID.TID 0000.0001)      cg2d_init_res =   3.14241477882228E-06
(PID.TID 0000.0001)      cg2d_iters(min,last) =      -1      74
(PID.TID 0000.0001)      cg2d_last_res =   9.99015112623194E-12
(PID.TID 0000.0001) // =======================================================
(PID.TID 0000.0001) // Begin MONITOR dynamic field statistics
(PID.TID 0000.0001) // =======================================================
(PID.TID 0000.0001) %MON time_tsnumber                =                  1098
(PID.TID 0000.0001) %MON time_secondsf                =   1.0980000000000E+05
(PID.TID 0000.0001) %MON dynstat_eta_max              =   5.7985119682235E+00
(PID.TID 0000.0001) %MON dynstat_eta_min              =  -1.4171970927035E+01
(PID.TID 0000.0001) %MON dynstat_eta_mean             =  -2.5246741496729E+00
(PID.TID 0000.0001) %MON dynstat_eta_sd               =   4.9412500846072E+00
(PID.TID 0000.0001) %MON dynstat_eta_del2             =   1.9058588759225E-01
(PID.TID 0000.0001) %MON dynstat_uvel_max             =   5.6919838460816E-03
(PID.TID 0000.0001) %MON dynstat_uvel_min             =  -2.6810296486222E-02
(PID.TID 0000.0001) %MON dynstat_uvel_mean            =   1.2875141337324E-10
(PID.TID 0000.0001) %MON dynstat_uvel_sd              =   7.2579151867388E-04
(PID.TID 0000.0001) %MON dynstat_uvel_del2            =   1.1138543643523E-06
(PID.TID 0000.0001) %MON dynstat_vvel_max             =   1.9188650092165E-02
(PID.TID 0000.0001) %MON dynstat_vvel_min             =  -7.0550361848305E-03
(PID.TID 0000.0001) %MON dynstat_vvel_mean            =   1.2266574713066E-07
(PID.TID 0000.0001) %MON dynstat_vvel_sd              =   3.6272823011261E-04
(PID.TID 0000.0001) %MON dynstat_vvel_del2            =   9.5649945313635E-07
(PID.TID 0000.0001) %MON dynstat_wvel_max             =   1.0875839159479E-03
(PID.TID 0000.0001) %MON dynstat_wvel_min             =  -1.2591056716093E-03
(PID.TID 0000.0001) %MON dynstat_wvel_mean            =   3.6462730963893E-10
(PID.TID 0000.0001) %MON dynstat_wvel_sd              =   1.8172060420293E-05
(PID.TID 0000.0001) %MON dynstat_wvel_del2            =   7.6458357586650E-08
(PID.TID 0000.0001) %MON dynstat_theta_max            =   1.2000000000000E+00
(PID.TID 0000.0001) %MON dynstat_theta_min            =  -1.0000000000000E+00
(PID.TID 0000.0001) %MON dynstat_theta_mean           =   5.6516945980241E-01
(PID.TID 0000.0001) %MON dynstat_theta_sd             =   8.4895676563067E-01
(PID.TID 0000.0001) %MON dynstat_theta_del2           =   2.6860388776833E-06
(PID.TID 0000.0001) %MON dynstat_salt_max             =   3.4700000000000E+01
(PID.TID 0000.0001) %MON dynstat_salt_min             =   3.4000000000000E+01
(PID.TID 0000.0001) %MON dynstat_salt_mean            =   3.4497981757306E+01
(PID.TID 0000.0001) %MON dynstat_salt_sd              =   2.7011917560970E-01
(PID.TID 0000.0001) %MON dynstat_salt_del2            =   1.0618362600655E-06
(PID.TID 0000.0001) %MON advcfl_uvel_max              =   2.6810296486222E-03
(PID.TID 0000.0001) %MON advcfl_vvel_max              =   1.9188650092165E-03
(PID.TID 0000.0001) %MON advcfl_wvel_max              =   6.2955283580463E-03
(PID.TID 0000.0001) %MON advcfl_W_hf_max              =   6.2955283580463E-03
(PID.TID 0000.0001) %MON pe_b_mean                    =  -6.8214310876203E-01
(PID.TID 0000.0001) %MON ke_max                       =   2.7146923016281E-04
(PID.TID 0000.0001) %MON ke_mean                      =   3.2421931086720E-07
(PID.TID 0000.0001) %MON ke_vol                       =   4.6183034026220E+12
(PID.TID 0000.0001) // =======================================================
(PID.TID 0000.0001) // End MONITOR dynamic field statistics
(PID.TID 0000.0001) // =======================================================
(PID.TID 0000.0001) // =======================================================
(PID.TID 0000.0001) // Begin OBCS MONITOR field statistics
(PID.TID 0000.0001) // =======================================================
(PID.TID 0000.0001) %MON obc_N_vVel_max               =   8.2872299602131E-08
(PID.TID 0000.0001) %MON obc_N_vVel_min               =   8.2872299602129E-08
(PID.TID 0000.0001) %MON obc_N_vVel_mean              =   8.2872299602131E-08
(PID.TID 0000.0001) %MON obc_N_vVel_sd                =  -3.7313120816954E-28
(PID.TID 0000.0001) %MON obc_N_vVel_Int               =   5.4695717737406E+00
(PID.TID 0000.0001) // =======================================================
(PID.TID 0000.0001) // End OBCS MONITOR field statistics
(PID.TID 0000.0001) // =======================================================
 cg2d: Sum(rhs),rhsMax =   3.00924087298010E+00  4.53044840321367E+02
(PID.TID 0000.0001)      cg2d_init_res =   3.14801230814122E-06
(PID.TID 0000.0001)      cg2d_iters(min,last) =      -1      75
(PID.TID 0000.0001)      cg2d_last_res =   7.42820680936737E-12
(PID.TID 0000.0001) // =======================================================
(PID.TID 0000.0001) // Begin MONITOR dynamic field statistics
(PID.TID 0000.0001) // =======================================================
(PID.TID 0000.0001) %MON time_tsnumber                =                  1099
(PID.TID 0000.0001) %MON time_secondsf                =   1.0990000000000E+05
(PID.TID 0000.0001) %MON dynstat_eta_max              =   5.7985144886883E+00
(PID.TID 0000.0001) %MON dynstat_eta_min              =  -1.4171959025846E+01
(PID.TID 0000.0001) %MON dynstat_eta_mean             =  -2.5246686125700E+00
(PID.TID 0000.0001) %MON dynstat_eta_sd               =   4.9412485069706E+00
(PID.TID 0000.0001) %MON dynstat_eta_del2             =   1.9058590443533E-01
(PID.TID 0000.0001) %MON dynstat_uvel_max             =   5.7061747132030E-03
(PID.TID 0000.0001) %MON dynstat_uvel_min             =  -2.6876324007617E-02
(PID.TID 0000.0001) %MON dynstat_uvel_mean            =   1.9246155113947E-10
(PID.TID 0000.0001) %MON dynstat_uvel_sd              =   7.2762082793337E-04
(PID.TID 0000.0001) %MON dynstat_uvel_del2            =   1.1165831107262E-06
(PID.TID 0000.0001) %MON dynstat_vvel_max             =   1.9226708698577E-02
(PID.TID 0000.0001) %MON dynstat_vvel_min             =  -7.0703222120674E-03
(PID.TID 0000.0001) %MON dynstat_vvel_mean            =   1.3729441526090E-07
(PID.TID 0000.0001) %MON dynstat_vvel_sd              =   3.6346405854994E-04
(PID.TID 0000.0001) %MON dynstat_vvel_del2            =   9.5852594925680E-07
(PID.TID 0000.0001) %MON dynstat_wvel_max             =   1.0901659493507E-03
(PID.TID 0000.0001) %MON dynstat_wvel_min             =  -1.2628297358570E-03
(PID.TID 0000.0001) %MON dynstat_wvel_mean            =   3.5138809379634E-10
(PID.TID 0000.0001) %MON dynstat_wvel_sd              =   1.8218194960098E-05
(PID.TID 0000.0001) %MON dynstat_wvel_del2            =   7.6640590348949E-08
(PID.TID 0000.0001) %MON dynstat_theta_max            =   1.2000000000000E+00
(PID.TID 0000.0001) %MON dynstat_theta_min            =  -1.0000000000000E+00
(PID.TID 0000.0001) %MON dynstat_theta_mean           =   5.6516883195861E-01
(PID.TID 0000.0001) %MON dynstat_theta_sd             =   8.4895649354871E-01
(PID.TID 0000.0001) %MON dynstat_theta_del2           =   2.6916350130707E-06
(PID.TID 0000.0001) %MON dynstat_salt_max             =   3.4700000000000E+01
(PID.TID 0000.0001) %MON dynstat_salt_min             =   3.4000000000000E+01
(PID.TID 0000.0001) %MON dynstat_salt_mean            =   3.4497981506690E+01
(PID.TID 0000.0001) %MON dynstat_salt_sd              =   2.7011907325746E-01
(PID.TID 0000.0001) %MON dynstat_salt_del2            =   1.0640578590522E-06
(PID.TID 0000.0001) %MON advcfl_uvel_max              =   2.6876324007617E-03
(PID.TID 0000.0001) %MON advcfl_vvel_max              =   1.9226708698577E-03
(PID.TID 0000.0001) %MON advcfl_wvel_max              =   6.3141486792850E-03
(PID.TID 0000.0001) %MON advcfl_W_hf_max              =   6.3141486792850E-03
(PID.TID 0000.0001) %MON pe_b_mean                    =  -6.8214146538974E-01
(PID.TID 0000.0001) %MON ke_max                       =   2.7300732813368E-04
(PID.TID 0000.0001) %MON ke_mean                      =   3.2579086163428E-07
(PID.TID 0000.0001) %MON ke_vol                       =   4.6183034355509E+12
(PID.TID 0000.0001) // =======================================================
(PID.TID 0000.0001) // End MONITOR dynamic field statistics
(PID.TID 0000.0001) // =======================================================
(PID.TID 0000.0001) // =======================================================
(PID.TID 0000.0001) // Begin OBCS MONITOR field statistics
(PID.TID 0000.0001) // =======================================================
(PID.TID 0000.0001) %MON obc_N_vVel_max               =   9.7951485661147E-08
(PID.TID 0000.0001) %MON obc_N_vVel_min               =   9.7951485661146E-08
(PID.TID 0000.0001) %MON obc_N_vVel_mean              =   9.7951485661146E-08
(PID.TID 0000.0001) %MON obc_N_vVel_sd                =   6.7641653219609E-15
(PID.TID 0000.0001) %MON obc_N_vVel_Int               =   6.4647980536356E+00
(PID.TID 0000.0001) // =======================================================
(PID.TID 0000.0001) // End OBCS MONITOR field statistics
(PID.TID 0000.0001) // =======================================================
 cg2d: Sum(rhs),rhsMax =   3.00923430699614E+00  4.53044836124874E+02
(PID.TID 0000.0001)      cg2d_init_res =   3.15386750869710E-06
(PID.TID 0000.0001)      cg2d_iters(min,last) =      -1      75
(PID.TID 0000.0001)      cg2d_last_res =   7.44180325145245E-12
(PID.TID 0000.0001) // =======================================================
(PID.TID 0000.0001) // Begin MONITOR dynamic field statistics
(PID.TID 0000.0001) // =======================================================
(PID.TID 0000.0001) %MON time_tsnumber                =                  1100
(PID.TID 0000.0001) %MON time_secondsf                =   1.1000000000000E+05
(PID.TID 0000.0001) %MON dynstat_eta_max              =   5.7985169858788E+00
(PID.TID 0000.0001) %MON dynstat_eta_min              =  -1.4171947128236E+01
(PID.TID 0000.0001) %MON dynstat_eta_mean             =  -2.5246630805082E+00
(PID.TID 0000.0001) %MON dynstat_eta_sd               =   4.9412469302978E+00
(PID.TID 0000.0001) %MON dynstat_eta_del2             =   1.9058592132210E-01
(PID.TID 0000.0001) %MON dynstat_uvel_max             =   5.7203976788553E-03
(PID.TID 0000.0001) %MON dynstat_uvel_min             =  -2.6942435323241E-02
(PID.TID 0000.0001) %MON dynstat_uvel_mean            =   2.6367552531332E-10
(PID.TID 0000.0001) %MON dynstat_uvel_sd              =   7.2945386359597E-04
(PID.TID 0000.0001) %MON dynstat_uvel_del2            =   1.1193185378785E-06
(PID.TID 0000.0001) %MON dynstat_vvel_max             =   1.9264796120768E-02
(PID.TID 0000.0001) %MON dynstat_vvel_min             =  -7.0856316712176E-03
(PID.TID 0000.0001) %MON dynstat_vvel_mean            =   1.5048767738952E-07
(PID.TID 0000.0001) %MON dynstat_vvel_sd              =   3.6419931502451E-04
(PID.TID 0000.0001) %MON dynstat_vvel_del2            =   9.6054342674313E-07
(PID.TID 0000.0001) %MON dynstat_wvel_max             =   1.0927517529549E-03
(PID.TID 0000.0001) %MON dynstat_wvel_min             =  -1.2665614864382E-03
(PID.TID 0000.0001) %MON dynstat_wvel_mean            =   3.3730544316336E-10
(PID.TID 0000.0001) %MON dynstat_wvel_sd              =   1.8257310745176E-05
(PID.TID 0000.0001) %MON dynstat_wvel_del2            =   7.6783906987399E-08
(PID.TID 0000.0001) %MON dynstat_theta_max            =   1.2000000000000E+00
(PID.TID 0000.0001) %MON dynstat_theta_min            =  -1.0000000000000E+00
(PID.TID 0000.0001) %MON dynstat_theta_mean           =   5.6516820298757E-01
(PID.TID 0000.0001) %MON dynstat_theta_sd             =   8.4895622088932E-01
(PID.TID 0000.0001) %MON dynstat_theta_del2           =   2.6972572915011E-06
(PID.TID 0000.0001) %MON dynstat_salt_max             =   3.4700000000000E+01
(PID.TID 0000.0001) %MON dynstat_salt_min             =   3.4000000000000E+01
(PID.TID 0000.0001) %MON dynstat_salt_mean            =   3.4497981255623E+01
(PID.TID 0000.0001) %MON dynstat_salt_sd              =   2.7011897068292E-01
(PID.TID 0000.0001) %MON dynstat_salt_del2            =   1.0662873836198E-06
(PID.TID 0000.0001) %MON advcfl_uvel_max              =   2.6942435323241E-03
(PID.TID 0000.0001) %MON advcfl_vvel_max              =   1.9264796120768E-03
(PID.TID 0000.0001) %MON advcfl_wvel_max              =   6.3328074321911E-03
(PID.TID 0000.0001) %MON advcfl_W_hf_max              =   6.3328074321911E-03
(PID.TID 0000.0001) %MON pe_b_mean                    =  -6.8213982158836E-01
(PID.TID 0000.0001) %MON ke_max                       =   2.7455287377721E-04
(PID.TID 0000.0001) %MON ke_mean                      =   3.2736869612600E-07
(PID.TID 0000.0001) %MON ke_vol                       =   4.6183034684413E+12
(PID.TID 0000.0001) // =======================================================
(PID.TID 0000.0001) // End MONITOR dynamic field statistics
(PID.TID 0000.0001) // =======================================================
(PID.TID 0000.0001) // =======================================================
(PID.TID 0000.0001) // Begin OBCS MONITOR field statistics
(PID.TID 0000.0001) // =======================================================
(PID.TID 0000.0001) %MON obc_N_vVel_max               =   1.1173634096366E-07
(PID.TID 0000.0001) %MON obc_N_vVel_min               =   1.1173634096366E-07
(PID.TID 0000.0001) %MON obc_N_vVel_mean              =   1.1173634096366E-07
(PID.TID 0000.0001) %MON obc_N_vVel_sd                =  -4.6858337770128E-28
(PID.TID 0000.0001) %MON obc_N_vVel_Int               =   7.3745985036015E+00
(PID.TID 0000.0001) // =======================================================
(PID.TID 0000.0001) // End OBCS MONITOR field statistics
(PID.TID 0000.0001) // =======================================================
 cg2d: Sum(rhs),rhsMax =   3.00922774816215E+00  4.53044831462771E+02
(PID.TID 0000.0001)      cg2d_init_res =   3.15968745263958E-06
(PID.TID 0000.0001)      cg2d_iters(min,last) =      -1      75
(PID.TID 0000.0001)      cg2d_last_res =   7.45629640290554E-12
(PID.TID 0000.0001) // =======================================================
(PID.TID 0000.0001) // Begin MONITOR dynamic field statistics
(PID.TID 0000.0001) // =======================================================
(PID.TID 0000.0001) %MON time_tsnumber                =                  1101
(PID.TID 0000.0001) %MON time_secondsf                =   1.1010000000000E+05
(PID.TID 0000.0001) %MON dynstat_eta_max              =   5.7985194634403E+00
(PID.TID 0000.0001) %MON dynstat_eta_min              =  -1.4171935231069E+01
(PID.TID 0000.0001) %MON dynstat_eta_mean             =  -2.5246575518504E+00
(PID.TID 0000.0001) %MON dynstat_eta_sd               =   4.9412453538623E+00
(PID.TID 0000.0001) %MON dynstat_eta_del2             =   1.9058593824917E-01
(PID.TID 0000.0001) %MON dynstat_uvel_max             =   5.7346527940592E-03
(PID.TID 0000.0001) %MON dynstat_uvel_min             =  -2.7008630205411E-02
(PID.TID 0000.0001) %MON dynstat_uvel_mean            =   3.4176841020696E-10
(PID.TID 0000.0001) %MON dynstat_uvel_sd              =   7.3129063269307E-04
(PID.TID 0000.0001) %MON dynstat_uvel_del2            =   1.1220606505528E-06
(PID.TID 0000.0001) %MON dynstat_vvel_max             =   1.9302912229616E-02
(PID.TID 0000.0001) %MON dynstat_vvel_min             =  -7.1009645698368E-03
(PID.TID 0000.0001) %MON dynstat_vvel_mean            =   1.6208169732409E-07
(PID.TID 0000.0001) %MON dynstat_vvel_sd              =   3.6493401634258E-04
(PID.TID 0000.0001) %MON dynstat_vvel_del2            =   9.6255241387272E-07
(PID.TID 0000.0001) %MON dynstat_wvel_max             =   1.0953413353984E-03
(PID.TID 0000.0001) %MON dynstat_wvel_min             =  -1.2703009167777E-03
(PID.TID 0000.0001) %MON dynstat_wvel_mean            =   3.2252691863352E-10
(PID.TID 0000.0001) %MON dynstat_wvel_sd              =   1.8289357898196E-05
(PID.TID 0000.0001) %MON dynstat_wvel_del2            =   7.6887702472862E-08
(PID.TID 0000.0001) %MON dynstat_theta_max            =   1.2000000000000E+00
(PID.TID 0000.0001) %MON dynstat_theta_min            =  -1.0000000000000E+00
(PID.TID 0000.0001) %MON dynstat_theta_mean           =   5.6516757288687E-01
(PID.TID 0000.0001) %MON dynstat_theta_sd             =   8.4895594765437E-01
(PID.TID 0000.0001) %MON dynstat_theta_del2           =   2.7029052291042E-06
(PID.TID 0000.0001) %MON dynstat_salt_max             =   3.4700000000000E+01
(PID.TID 0000.0001) %MON dynstat_salt_min             =   3.4000000000000E+01
(PID.TID 0000.0001) %MON dynstat_salt_mean            =   3.4497981004102E+01
(PID.TID 0000.0001) %MON dynstat_salt_sd              =   2.7011886788673E-01
(PID.TID 0000.0001) %MON dynstat_salt_del2            =   1.0685247385199E-06
(PID.TID 0000.0001) %MON advcfl_uvel_max              =   2.7008630205411E-03
(PID.TID 0000.0001) %MON advcfl_vvel_max              =   1.9302912229616E-03
(PID.TID 0000.0001) %MON advcfl_wvel_max              =   6.3515045838885E-03
(PID.TID 0000.0001) %MON advcfl_W_hf_max              =   6.3515045838885E-03
(PID.TID 0000.0001) %MON pe_b_mean                    =  -6.8213817699917E-01
(PID.TID 0000.0001) %MON ke_max                       =   2.7610589432848E-04
(PID.TID 0000.0001) %MON ke_mean                      =   3.2895284428285E-07
(PID.TID 0000.0001) %MON ke_vol                       =   4.6183035013018E+12
(PID.TID 0000.0001) // =======================================================
(PID.TID 0000.0001) // End MONITOR dynamic field statistics
(PID.TID 0000.0001) // =======================================================
(PID.TID 0000.0001) // =======================================================
(PID.TID 0000.0001) // Begin OBCS MONITOR field statistics
(PID.TID 0000.0001) // =======================================================
(PID.TID 0000.0001) %MON obc_N_vVel_max               =   1.2405769171810E-07
(PID.TID 0000.0001) %MON obc_N_vVel_min               =   1.2405769171810E-07
(PID.TID 0000.0001) %MON obc_N_vVel_mean              =   1.2405769171810E-07
(PID.TID 0000.0001) %MON obc_N_vVel_sd                =  -1.0570736129962E-27
(PID.TID 0000.0001) %MON obc_N_vVel_Int               =   8.1878076533945E+00
(PID.TID 0000.0001) // =======================================================
(PID.TID 0000.0001) // End OBCS MONITOR field statistics
(PID.TID 0000.0001) // =======================================================
 cg2d: Sum(rhs),rhsMax =   3.00922119488462E+00  4.53044826250117E+02
(PID.TID 0000.0001)      cg2d_init_res =   3.16548359252142E-06
(PID.TID 0000.0001)      cg2d_iters(min,last) =      -1      75
(PID.TID 0000.0001)      cg2d_last_res =   7.47117226727097E-12
(PID.TID 0000.0001) // =======================================================
(PID.TID 0000.0001) // Begin MONITOR dynamic field statistics
(PID.TID 0000.0001) // =======================================================
(PID.TID 0000.0001) %MON time_tsnumber                =                  1102
(PID.TID 0000.0001) %MON time_secondsf                =   1.1020000000000E+05
(PID.TID 0000.0001) %MON dynstat_eta_max              =   5.7985219245589E+00
(PID.TID 0000.0001) %MON dynstat_eta_min              =  -1.4171923330846E+01
(PID.TID 0000.0001) %MON dynstat_eta_mean             =  -2.5246520247864E+00
(PID.TID 0000.0001) %MON dynstat_eta_sd               =   4.9412437768978E+00
(PID.TID 0000.0001) %MON dynstat_eta_del2             =   1.9058595521286E-01
(PID.TID 0000.0001) %MON dynstat_uvel_max             =   5.7489401017170E-03
(PID.TID 0000.0001) %MON dynstat_uvel_min             =  -2.7074908426346E-02
(PID.TID 0000.0001) %MON dynstat_uvel_mean            =   4.2602457562606E-10
(PID.TID 0000.0001) %MON dynstat_uvel_sd              =   7.3313114202143E-04
(PID.TID 0000.0001) %MON dynstat_uvel_del2            =   1.1248094506145E-06
(PID.TID 0000.0001) %MON dynstat_vvel_max             =   1.9341056906359E-02
(PID.TID 0000.0001) %MON dynstat_vvel_min             =  -7.1163208965492E-03
(PID.TID 0000.0001) %MON dynstat_vvel_mean            =   1.7193129791841E-07
(PID.TID 0000.0001) %MON dynstat_vvel_sd              =   3.6566827274056E-04
(PID.TID 0000.0001) %MON dynstat_vvel_del2            =   9.6455409844109E-07
(PID.TID 0000.0001) %MON dynstat_wvel_max             =   1.0979346913731E-03
(PID.TID 0000.0001) %MON dynstat_wvel_min             =  -1.2740480169131E-03
(PID.TID 0000.0001) %MON dynstat_wvel_mean            =   3.0725448674630E-10
(PID.TID 0000.0001) %MON dynstat_wvel_sd              =   1.8314641676850E-05
(PID.TID 0000.0001) %MON dynstat_wvel_del2            =   7.6953446958218E-08
(PID.TID 0000.0001) %MON dynstat_theta_max            =   1.2000000000000E+00
(PID.TID 0000.0001) %MON dynstat_theta_min            =  -1.0000000000000E+00
(PID.TID 0000.0001) %MON dynstat_theta_mean           =   5.6516694165409E-01
(PID.TID 0000.0001) %MON dynstat_theta_sd             =   8.4895567384610E-01
(PID.TID 0000.0001) %MON dynstat_theta_del2           =   2.7085774756961E-06
(PID.TID 0000.0001) %MON dynstat_salt_max             =   3.4700000000000E+01
(PID.TID 0000.0001) %MON dynstat_salt_min             =   3.4000000000000E+01
(PID.TID 0000.0001) %MON dynstat_salt_mean            =   3.4497980752127E+01
(PID.TID 0000.0001) %MON dynstat_salt_sd              =   2.7011876486947E-01
(PID.TID 0000.0001) %MON dynstat_salt_del2            =   1.0707696099911E-06
(PID.TID 0000.0001) %MON advcfl_uvel_max              =   2.7074908426346E-03
(PID.TID 0000.0001) %MON advcfl_vvel_max              =   1.9341056906359E-03
(PID.TID 0000.0001) %MON advcfl_wvel_max              =   6.3702400845653E-03
(PID.TID 0000.0001) %MON advcfl_W_hf_max              =   6.3702400845653E-03
(PID.TID 0000.0001) %MON pe_b_mean                    =  -6.8213653123359E-01
(PID.TID 0000.0001) %MON ke_max                       =   2.7766641679230E-04
(PID.TID 0000.0001) %MON ke_mean                      =   3.3054337018464E-07
(PID.TID 0000.0001) %MON ke_vol                       =   4.6183035341420E+12
(PID.TID 0000.0001) // =======================================================
(PID.TID 0000.0001) // End MONITOR dynamic field statistics
(PID.TID 0000.0001) // =======================================================
(PID.TID 0000.0001) // =======================================================
(PID.TID 0000.0001) // Begin OBCS MONITOR field statistics
(PID.TID 0000.0001) // =======================================================
(PID.TID 0000.0001) %MON obc_N_vVel_max               =   1.3475992731311E-07
(PID.TID 0000.0001) %MON obc_N_vVel_min               =   1.3475992731311E-07
(PID.TID 0000.0001) %MON obc_N_vVel_mean              =   1.3475992731311E-07
(PID.TID 0000.0001) %MON obc_N_vVel_sd                =   1.8630587706705E-14
(PID.TID 0000.0001) %MON obc_N_vVel_Int               =   8.8941552026653E+00
(PID.TID 0000.0001) // =======================================================
(PID.TID 0000.0001) // End OBCS MONITOR field statistics
(PID.TID 0000.0001) // =======================================================
 cg2d: Sum(rhs),rhsMax =   3.00921464534792E+00  4.53044820408753E+02
(PID.TID 0000.0001)      cg2d_init_res =   3.17125918229203E-06
(PID.TID 0000.0001)      cg2d_iters(min,last) =      -1      75
(PID.TID 0000.0001)      cg2d_last_res =   7.48648149074899E-12
(PID.TID 0000.0001) // =======================================================
(PID.TID 0000.0001) // Begin MONITOR dynamic field statistics
(PID.TID 0000.0001) // =======================================================
(PID.TID 0000.0001) %MON time_tsnumber                =                  1103
(PID.TID 0000.0001) %MON time_secondsf                =   1.1030000000000E+05
(PID.TID 0000.0001) %MON dynstat_eta_max              =   5.7985243726334E+00
(PID.TID 0000.0001) %MON dynstat_eta_min              =  -1.4171911423862E+01
(PID.TID 0000.0001) %MON dynstat_eta_mean             =  -2.5246464973575E+00
(PID.TID 0000.0001) %MON dynstat_eta_sd               =   4.9412421986087E+00
(PID.TID 0000.0001) %MON dynstat_eta_del2             =   1.9058597220945E-01
(PID.TID 0000.0001) %MON dynstat_uvel_max             =   5.7632596460753E-03
(PID.TID 0000.0001) %MON dynstat_uvel_min             =  -2.7141269758613E-02
(PID.TID 0000.0001) %MON dynstat_uvel_mean            =   5.1563675010677E-10
(PID.TID 0000.0001) %MON dynstat_uvel_sd              =   7.3497539816314E-04
(PID.TID 0000.0001) %MON dynstat_uvel_del2            =   1.1275649374200E-06
(PID.TID 0000.0001) %MON dynstat_vvel_max             =   1.9379230032633E-02
(PID.TID 0000.0001) %MON dynstat_vvel_min             =  -7.1317006406986E-03
(PID.TID 0000.0001) %MON dynstat_vvel_mean            =   1.7991259339420E-07
(PID.TID 0000.0001) %MON dynstat_vvel_sd              =   3.6640228275749E-04
(PID.TID 0000.0001) %MON dynstat_vvel_del2            =   9.6655028092481E-07
(PID.TID 0000.0001) %MON dynstat_wvel_max             =   1.1005318188187E-03
(PID.TID 0000.0001) %MON dynstat_wvel_min             =  -1.2778027779015E-03
(PID.TID 0000.0001) %MON dynstat_wvel_mean            =   2.9167159134769E-10
(PID.TID 0000.0001) %MON dynstat_wvel_sd              =   1.8333811637456E-05
(PID.TID 0000.0001) %MON dynstat_wvel_del2            =   7.6984671458740E-08
(PID.TID 0000.0001) %MON dynstat_theta_max            =   1.2000000000000E+00
(PID.TID 0000.0001) %MON dynstat_theta_min            =  -1.0000000000000E+00
(PID.TID 0000.0001) %MON dynstat_theta_mean           =   5.6516630928680E-01
(PID.TID 0000.0001) %MON dynstat_theta_sd             =   8.4895539946580E-01
(PID.TID 0000.0001) %MON dynstat_theta_del2           =   2.7142718752023E-06
(PID.TID 0000.0001) %MON dynstat_salt_max             =   3.4700000000000E+01
(PID.TID 0000.0001) %MON dynstat_salt_min             =   3.4000000000000E+01
(PID.TID 0000.0001) %MON dynstat_salt_mean            =   3.4497980499698E+01
(PID.TID 0000.0001) %MON dynstat_salt_sd              =   2.7011866163167E-01
(PID.TID 0000.0001) %MON dynstat_salt_del2            =   1.0730214769940E-06
(PID.TID 0000.0001) %MON advcfl_uvel_max              =   2.7141269758613E-03
(PID.TID 0000.0001) %MON advcfl_vvel_max              =   1.9379230032633E-03
(PID.TID 0000.0001) %MON advcfl_wvel_max              =   6.3890138895077E-03
(PID.TID 0000.0001) %MON advcfl_W_hf_max              =   6.3890138895077E-03
(PID.TID 0000.0001) %MON pe_b_mean                    =  -6.8213488387780E-01
(PID.TID 0000.0001) %MON ke_max                       =   2.7923446837523E-04
(PID.TID 0000.0001) %MON ke_mean                      =   3.3214037053124E-07
(PID.TID 0000.0001) %MON ke_vol                       =   4.6183035669728E+12
(PID.TID 0000.0001) // =======================================================
(PID.TID 0000.0001) // End MONITOR dynamic field statistics
(PID.TID 0000.0001) // =======================================================
(PID.TID 0000.0001) // =======================================================
(PID.TID 0000.0001) // Begin OBCS MONITOR field statistics
(PID.TID 0000.0001) // =======================================================
(PID.TID 0000.0001) %MON obc_N_vVel_max               =   1.4370969257041E-07
(PID.TID 0000.0001) %MON obc_N_vVel_min               =   1.4370969257041E-07
(PID.TID 0000.0001) %MON obc_N_vVel_mean              =   1.4370969257041E-07
(PID.TID 0000.0001) %MON obc_N_vVel_sd                =   3.5304393922700E-14
(PID.TID 0000.0001) %MON obc_N_vVel_Int               =   9.4848397096470E+00
(PID.TID 0000.0001) // =======================================================
(PID.TID 0000.0001) // End OBCS MONITOR field statistics
(PID.TID 0000.0001) // =======================================================
 cg2d: Sum(rhs),rhsMax =   3.00920809754228E+00  4.53044813867362E+02
(PID.TID 0000.0001)      cg2d_init_res =   3.17703251579413E-06
(PID.TID 0000.0001)      cg2d_iters(min,last) =      -1      75
(PID.TID 0000.0001)      cg2d_last_res =   7.50226094611939E-12
(PID.TID 0000.0001) // =======================================================
(PID.TID 0000.0001) // Begin MONITOR dynamic field statistics
(PID.TID 0000.0001) // =======================================================
(PID.TID 0000.0001) %MON time_tsnumber                =                  1104
(PID.TID 0000.0001) %MON time_secondsf                =   1.1040000000000E+05
(PID.TID 0000.0001) %MON dynstat_eta_max              =   5.7985268112405E+00
(PID.TID 0000.0001) %MON dynstat_eta_min              =  -1.4171899506240E+01
(PID.TID 0000.0001) %MON dynstat_eta_mean             =  -2.5246409674800E+00
(PID.TID 0000.0001) %MON dynstat_eta_sd               =   4.9412406181795E+00
(PID.TID 0000.0001) %MON dynstat_eta_del2             =   1.9058598923531E-01
(PID.TID 0000.0001) %MON dynstat_uvel_max             =   5.7776114704273E-03
(PID.TID 0000.0001) %MON dynstat_uvel_min             =  -2.7207713975826E-02
(PID.TID 0000.0001) %MON dynstat_uvel_mean            =   6.0971117880190E-10
(PID.TID 0000.0001) %MON dynstat_uvel_sd              =   7.3682340751770E-04
(PID.TID 0000.0001) %MON dynstat_uvel_del2            =   1.1303271083255E-06
(PID.TID 0000.0001) %MON dynstat_vvel_max             =   1.9417431492762E-02
(PID.TID 0000.0001) %MON dynstat_vvel_min             =  -7.1471037896549E-03
(PID.TID 0000.0001) %MON dynstat_vvel_mean            =   1.8592444793295E-07
(PID.TID 0000.0001) %MON dynstat_vvel_sd              =   3.6713632342198E-04
(PID.TID 0000.0001) %MON dynstat_vvel_del2            =   9.6854329079068E-07
(PID.TID 0000.0001) %MON dynstat_wvel_max             =   1.1031327157562E-03
(PID.TID 0000.0001) %MON dynstat_wvel_min             =  -1.2815651908940E-03
(PID.TID 0000.0001) %MON dynstat_wvel_mean            =   2.7597062047425E-10
(PID.TID 0000.0001) %MON dynstat_wvel_sd              =   1.8347832293383E-05
(PID.TID 0000.0001) %MON dynstat_wvel_del2            =   7.6986830767114E-08
(PID.TID 0000.0001) %MON dynstat_theta_max            =   1.2000000000000E+00
(PID.TID 0000.0001) %MON dynstat_theta_min            =  -1.0000000000000E+00
(PID.TID 0000.0001) %MON dynstat_theta_mean           =   5.6516567578263E-01
(PID.TID 0000.0001) %MON dynstat_theta_sd             =   8.4895512451467E-01
(PID.TID 0000.0001) %MON dynstat_theta_del2           =   2.7199855817110E-06
(PID.TID 0000.0001) %MON dynstat_salt_max             =   3.4700000000000E+01
(PID.TID 0000.0001) %MON dynstat_salt_min             =   3.4000000000000E+01
(PID.TID 0000.0001) %MON dynstat_salt_mean            =   3.4497980246812E+01
(PID.TID 0000.0001) %MON dynstat_salt_sd              =   2.7011855817368E-01
(PID.TID 0000.0001) %MON dynstat_salt_del2            =   1.0752797079234E-06
(PID.TID 0000.0001) %MON advcfl_uvel_max              =   2.7207713975826E-03
(PID.TID 0000.0001) %MON advcfl_vvel_max              =   1.9417431492762E-03
(PID.TID 0000.0001) %MON advcfl_wvel_max              =   6.4078259544698E-03
(PID.TID 0000.0001) %MON advcfl_W_hf_max              =   6.4078259544698E-03
(PID.TID 0000.0001) %MON pe_b_mean                    =  -6.8213323449776E-01
(PID.TID 0000.0001) %MON ke_max                       =   2.8081007641378E-04
(PID.TID 0000.0001) %MON ke_mean                      =   3.3374397138805E-07
(PID.TID 0000.0001) %MON ke_vol                       =   4.6183035998057E+12
(PID.TID 0000.0001) // =======================================================
(PID.TID 0000.0001) // End MONITOR dynamic field statistics
(PID.TID 0000.0001) // =======================================================
(PID.TID 0000.0001) // =======================================================
(PID.TID 0000.0001) // Begin OBCS MONITOR field statistics
(PID.TID 0000.0001) // =======================================================
(PID.TID 0000.0001) %MON obc_N_vVel_max               =   1.5079414312855E-07
(PID.TID 0000.0001) %MON obc_N_vVel_min               =   1.5079414312855E-07
(PID.TID 0000.0001) %MON obc_N_vVel_mean              =   1.5079414312855E-07
(PID.TID 0000.0001) %MON obc_N_vVel_sd                =  -1.4515040656067E-28
(PID.TID 0000.0001) %MON obc_N_vVel_Int               =   9.9524134464844E+00
(PID.TID 0000.0001) // =======================================================
(PID.TID 0000.0001) // End OBCS MONITOR field statistics
(PID.TID 0000.0001) // =======================================================
 cg2d: Sum(rhs),rhsMax =   3.00920154928608E+00  4.53044806562501E+02
(PID.TID 0000.0001)      cg2d_init_res =   3.18283644766723E-06
(PID.TID 0000.0001)      cg2d_iters(min,last) =      -1      75
(PID.TID 0000.0001)      cg2d_last_res =   7.51853571636277E-12
(PID.TID 0000.0001) // =======================================================
(PID.TID 0000.0001) // Begin MONITOR dynamic field statistics
(PID.TID 0000.0001) // =======================================================
(PID.TID 0000.0001) %MON time_tsnumber                =                  1105
(PID.TID 0000.0001) %MON time_secondsf                =   1.1050000000000E+05
(PID.TID 0000.0001) %MON dynstat_eta_max              =   5.7985292440858E+00
(PID.TID 0000.0001) %MON dynstat_eta_min              =  -1.4171887573942E+01
(PID.TID 0000.0001) %MON dynstat_eta_mean             =  -2.5246354329702E+00
(PID.TID 0000.0001) %MON dynstat_eta_sd               =   4.9412390347848E+00
(PID.TID 0000.0001) %MON dynstat_eta_del2             =   1.9058600628687E-01
(PID.TID 0000.0001) %MON dynstat_uvel_max             =   5.7919956171366E-03
(PID.TID 0000.0001) %MON dynstat_uvel_min             =  -2.7274240850433E-02
(PID.TID 0000.0001) %MON dynstat_uvel_mean            =   7.0728949851389E-10
(PID.TID 0000.0001) %MON dynstat_uvel_sd              =   7.3867517632679E-04
(PID.TID 0000.0001) %MON dynstat_uvel_del2            =   1.1330959590171E-06
(PID.TID 0000.0001) %MON dynstat_vvel_max             =   1.9455661174081E-02
(PID.TID 0000.0001) %MON dynstat_vvel_min             =  -7.1625303279257E-03
(PID.TID 0000.0001) %MON dynstat_vvel_mean            =   1.8988985797238E-07
(PID.TID 0000.0001) %MON dynstat_vvel_sd              =   3.6787073621978E-04
(PID.TID 0000.0001) %MON dynstat_vvel_del2            =   9.7053587033350E-07
(PID.TID 0000.0001) %MON dynstat_wvel_max             =   1.1057373800933E-03
(PID.TID 0000.0001) %MON dynstat_wvel_min             =  -1.2853352471834E-03
(PID.TID 0000.0001) %MON dynstat_wvel_mean            =   2.6034899699614E-10
(PID.TID 0000.0001) %MON dynstat_wvel_sd              =   1.8357936421130E-05
(PID.TID 0000.0001) %MON dynstat_wvel_del2            =   7.6967047348568E-08
(PID.TID 0000.0001) %MON dynstat_theta_max            =   1.2000000000000E+00
(PID.TID 0000.0001) %MON dynstat_theta_min            =  -1.0000000000000E+00
(PID.TID 0000.0001) %MON dynstat_theta_mean           =   5.6516504113932E-01
(PID.TID 0000.0001) %MON dynstat_theta_sd             =   8.4895484899422E-01
(PID.TID 0000.0001) %MON dynstat_theta_del2           =   2.7257158902949E-06
(PID.TID 0000.0001) %MON dynstat_salt_max             =   3.4700000000000E+01
(PID.TID 0000.0001) %MON dynstat_salt_min             =   3.4000000000000E+01
(PID.TID 0000.0001) %MON dynstat_salt_mean            =   3.4497979993471E+01
(PID.TID 0000.0001) %MON dynstat_salt_sd              =   2.7011845449605E-01
(PID.TID 0000.0001) %MON dynstat_salt_del2            =   1.0775436273953E-06
(PID.TID 0000.0001) %MON advcfl_uvel_max              =   2.7274240850433E-03
(PID.TID 0000.0001) %MON advcfl_vvel_max              =   1.9455661174081E-03
(PID.TID 0000.0001) %MON advcfl_wvel_max              =   6.4266762359172E-03
(PID.TID 0000.0001) %MON advcfl_W_hf_max              =   6.4266762359172E-03
(PID.TID 0000.0001) %MON pe_b_mean                    =  -6.8213158264448E-01
(PID.TID 0000.0001) %MON ke_max                       =   2.8239326834584E-04
(PID.TID 0000.0001) %MON ke_mean                      =   3.3535432333189E-07
(PID.TID 0000.0001) %MON ke_vol                       =   4.6183036326532E+12
(PID.TID 0000.0001) // =======================================================
(PID.TID 0000.0001) // End MONITOR dynamic field statistics
(PID.TID 0000.0001) // =======================================================
(PID.TID 0000.0001) // =======================================================
(PID.TID 0000.0001) // Begin OBCS MONITOR field statistics
(PID.TID 0000.0001) // =======================================================
(PID.TID 0000.0001) %MON obc_N_vVel_max               =   1.5592288704037E-07
(PID.TID 0000.0001) %MON obc_N_vVel_min               =   1.5592288704037E-07
(PID.TID 0000.0001) %MON obc_N_vVel_mean              =   1.5592288704037E-07
(PID.TID 0000.0001) %MON obc_N_vVel_sd                =  -4.5122843778642E-28
(PID.TID 0000.0001) %MON obc_N_vVel_Int               =   1.0290910544664E+01
(PID.TID 0000.0001) // =======================================================
(PID.TID 0000.0001) // End OBCS MONITOR field statistics
(PID.TID 0000.0001) // =======================================================
 cg2d: Sum(rhs),rhsMax =   3.00919499825095E+00  4.53044798439575E+02
(PID.TID 0000.0001)      cg2d_init_res =   3.18871563418702E-06
(PID.TID 0000.0001)      cg2d_iters(min,last) =      -1      75
(PID.TID 0000.0001)      cg2d_last_res =   7.53533110513515E-12
(PID.TID 0000.0001) // =======================================================
(PID.TID 0000.0001) // Begin MONITOR dynamic field statistics
(PID.TID 0000.0001) // =======================================================
(PID.TID 0000.0001) %MON time_tsnumber                =                  1106
(PID.TID 0000.0001) %MON time_secondsf                =   1.1060000000000E+05
(PID.TID 0000.0001) %MON dynstat_eta_max              =   5.7985316749552E+00
(PID.TID 0000.0001) %MON dynstat_eta_min              =  -1.4171875622843E+01
(PID.TID 0000.0001) %MON dynstat_eta_mean             =  -2.5246298915703E+00
(PID.TID 0000.0001) %MON dynstat_eta_sd               =   4.9412374475995E+00
(PID.TID 0000.0001) %MON dynstat_eta_del2             =   1.9058602336068E-01
(PID.TID 0000.0001) %MON dynstat_uvel_max             =   5.8064121274572E-03
(PID.TID 0000.0001) %MON dynstat_uvel_min             =  -2.7340850153625E-02
(PID.TID 0000.0001) %MON dynstat_uvel_mean            =   8.0736165756726E-10
(PID.TID 0000.0001) %MON dynstat_uvel_sd              =   7.4053071071406E-04
(PID.TID 0000.0001) %MON dynstat_uvel_del2            =   1.1358714840740E-06
(PID.TID 0000.0001) %MON dynstat_vvel_max             =   1.9493918967049E-02
(PID.TID 0000.0001) %MON dynstat_vvel_min             =  -7.1779802366123E-03
(PID.TID 0000.0001) %MON dynstat_vvel_mean            =   1.9175710308983E-07
(PID.TID 0000.0001) %MON dynstat_vvel_sd              =   3.6860590962652E-04
(PID.TID 0000.0001) %MON dynstat_vvel_del2            =   9.7253103234696E-07
(PID.TID 0000.0001) %MON dynstat_wvel_max             =   1.1083458096427E-03
(PID.TID 0000.0001) %MON dynstat_wvel_min             =  -1.2891129384607E-03
(PID.TID 0000.0001) %MON dynstat_wvel_mean            =   2.4500462439864E-10
(PID.TID 0000.0001) %MON dynstat_wvel_sd              =   1.8365562937901E-05
(PID.TID 0000.0001) %MON dynstat_wvel_del2            =   7.6933746308696E-08
(PID.TID 0000.0001) %MON dynstat_theta_max            =   1.2000000000000E+00
(PID.TID 0000.0001) %MON dynstat_theta_min            =  -1.0000000000000E+00
(PID.TID 0000.0001) %MON dynstat_theta_mean           =   5.6516440535464E-01
(PID.TID 0000.0001) %MON dynstat_theta_sd             =   8.4895457290533E-01
(PID.TID 0000.0001) %MON dynstat_theta_del2           =   2.7314584104464E-06
(PID.TID 0000.0001) %MON dynstat_salt_max             =   3.4700000000000E+01
(PID.TID 0000.0001) %MON dynstat_salt_min             =   3.4000000000000E+01
(PID.TID 0000.0001) %MON dynstat_salt_mean            =   3.4497979739671E+01
(PID.TID 0000.0001) %MON dynstat_salt_sd              =   2.7011835059878E-01
(PID.TID 0000.0001) %MON dynstat_salt_del2            =   1.0798120847454E-06
(PID.TID 0000.0001) %MON advcfl_uvel_max              =   2.7340850153625E-03
(PID.TID 0000.0001) %MON advcfl_vvel_max              =   1.9493918967049E-03
(PID.TID 0000.0001) %MON advcfl_wvel_max              =   6.4455646923037E-03
(PID.TID 0000.0001) %MON advcfl_W_hf_max              =   6.4455646923037E-03
(PID.TID 0000.0001) %MON pe_b_mean                    =  -6.8212992785944E-01
(PID.TID 0000.0001) %MON ke_max                       =   2.8398407170560E-04
(PID.TID 0000.0001) %MON ke_mean                      =   3.3697159528009E-07
(PID.TID 0000.0001) %MON ke_vol                       =   4.6183036655282E+12
(PID.TID 0000.0001) // =======================================================
(PID.TID 0000.0001) // End MONITOR dynamic field statistics
(PID.TID 0000.0001) // =======================================================
(PID.TID 0000.0001) // =======================================================
(PID.TID 0000.0001) // Begin OBCS MONITOR field statistics
(PID.TID 0000.0001) // =======================================================
(PID.TID 0000.0001) %MON obc_N_vVel_max               =   1.5902957400671E-07
(PID.TID 0000.0001) %MON obc_N_vVel_min               =   1.5902957400671E-07
(PID.TID 0000.0001) %MON obc_N_vVel_mean              =   1.5902957400671E-07
(PID.TID 0000.0001) %MON obc_N_vVel_sd                =  -8.4881433401781E-28
(PID.TID 0000.0001) %MON obc_N_vVel_Int               =   1.0495951884443E+01
(PID.TID 0000.0001) // =======================================================
(PID.TID 0000.0001) // End OBCS MONITOR field statistics
(PID.TID 0000.0001) // =======================================================
 cg2d: Sum(rhs),rhsMax =   3.00918844199456E+00  4.53044789452880E+02
(PID.TID 0000.0001)      cg2d_init_res =   3.19472296788737E-06
(PID.TID 0000.0001)      cg2d_iters(min,last) =      -1      75
(PID.TID 0000.0001)      cg2d_last_res =   7.55266083066231E-12
(PID.TID 0000.0001) // =======================================================
(PID.TID 0000.0001) // Begin MONITOR dynamic field statistics
(PID.TID 0000.0001) // =======================================================
(PID.TID 0000.0001) %MON time_tsnumber                =                  1107
(PID.TID 0000.0001) %MON time_secondsf                =   1.1070000000000E+05
(PID.TID 0000.0001) %MON dynstat_eta_max              =   5.7985341076562E+00
(PID.TID 0000.0001) %MON dynstat_eta_min              =  -1.4171863648775E+01
(PID.TID 0000.0001) %MON dynstat_eta_mean             =  -2.5246243409768E+00
(PID.TID 0000.0001) %MON dynstat_eta_sd               =   4.9412358558096E+00
(PID.TID 0000.0001) %MON dynstat_eta_del2             =   1.9058604045347E-01
(PID.TID 0000.0001) %MON dynstat_uvel_max             =   5.8208610419399E-03
(PID.TID 0000.0001) %MON dynstat_uvel_min             =  -2.7407541658814E-02
(PID.TID 0000.0001) %MON dynstat_uvel_mean            =   9.0887703100390E-10
(PID.TID 0000.0001) %MON dynstat_uvel_sd              =   7.4239001678428E-04
(PID.TID 0000.0001) %MON dynstat_uvel_del2            =   1.1386536783295E-06
(PID.TID 0000.0001) %MON dynstat_vvel_max             =   1.9532204765462E-02
(PID.TID 0000.0001) %MON dynstat_vvel_min             =  -7.1934534940361E-03
(PID.TID 0000.0001) %MON dynstat_vvel_mean            =   1.9150059283931E-07
(PID.TID 0000.0001) %MON dynstat_vvel_sd              =   3.6934225920075E-04
(PID.TID 0000.0001) %MON dynstat_vvel_del2            =   9.7453189972516E-07
(PID.TID 0000.0001) %MON dynstat_wvel_max             =   1.1109580021429E-03
(PID.TID 0000.0001) %MON dynstat_wvel_min             =  -1.2928982565063E-03
(PID.TID 0000.0001) %MON dynstat_wvel_mean            =   2.3013415794163E-10
(PID.TID 0000.0001) %MON dynstat_wvel_sd              =   1.8372282256192E-05
(PID.TID 0000.0001) %MON dynstat_wvel_del2            =   7.6896199015974E-08
(PID.TID 0000.0001) %MON dynstat_theta_max            =   1.2000000000000E+00
(PID.TID 0000.0001) %MON dynstat_theta_min            =  -1.0000000000000E+00
(PID.TID 0000.0001) %MON dynstat_theta_mean           =   5.6516376842644E-01
(PID.TID 0000.0001) %MON dynstat_theta_sd             =   8.4895429624840E-01
(PID.TID 0000.0001) %MON dynstat_theta_del2           =   2.7372092067861E-06
(PID.TID 0000.0001) %MON dynstat_salt_max             =   3.4700000000000E+01
(PID.TID 0000.0001) %MON dynstat_salt_min             =   3.4000000000000E+01
(PID.TID 0000.0001) %MON dynstat_salt_mean            =   3.4497979485414E+01
(PID.TID 0000.0001) %MON dynstat_salt_sd              =   2.7011824648232E-01
(PID.TID 0000.0001) %MON dynstat_salt_del2            =   1.0820841055853E-06
(PID.TID 0000.0001) %MON advcfl_uvel_max              =   2.7407541658814E-03
(PID.TID 0000.0001) %MON advcfl_vvel_max              =   1.9532204765462E-03
(PID.TID 0000.0001) %MON advcfl_wvel_max              =   6.4644912825317E-03
(PID.TID 0000.0001) %MON advcfl_W_hf_max              =   6.4644912825317E-03
(PID.TID 0000.0001) %MON pe_b_mean                    =  -6.8212826968036E-01
(PID.TID 0000.0001) %MON ke_max                       =   2.8558251414373E-04
(PID.TID 0000.0001) %MON ke_mean                      =   3.3859596738622E-07
(PID.TID 0000.0001) %MON ke_vol                       =   4.6183036984441E+12
(PID.TID 0000.0001) // =======================================================
(PID.TID 0000.0001) // End MONITOR dynamic field statistics
(PID.TID 0000.0001) // =======================================================
(PID.TID 0000.0001) // =======================================================
(PID.TID 0000.0001) // Begin OBCS MONITOR field statistics
(PID.TID 0000.0001) // =======================================================
(PID.TID 0000.0001) %MON obc_N_vVel_max               =   1.6007290582586E-07
(PID.TID 0000.0001) %MON obc_N_vVel_min               =   1.6007290582585E-07
(PID.TID 0000.0001) %MON obc_N_vVel_mean              =   1.6007290582585E-07
(PID.TID 0000.0001) %MON obc_N_vVel_sd                =   5.1606147075965E-14
(PID.TID 0000.0001) %MON obc_N_vVel_Int               =   1.0564811784506E+01
(PID.TID 0000.0001) // =======================================================
(PID.TID 0000.0001) // End OBCS MONITOR field statistics
(PID.TID 0000.0001) // =======================================================
 cg2d: Sum(rhs),rhsMax =   3.00918187798719E+00  4.53044779566809E+02
(PID.TID 0000.0001)      cg2d_init_res =   3.20091764558801E-06
(PID.TID 0000.0001)      cg2d_iters(min,last) =      -1      75
(PID.TID 0000.0001)      cg2d_last_res =   7.57054041316176E-12
(PID.TID 0000.0001) // =======================================================
(PID.TID 0000.0001) // Begin MONITOR dynamic field statistics
(PID.TID 0000.0001) // =======================================================
(PID.TID 0000.0001) %MON time_tsnumber                =                  1108
(PID.TID 0000.0001) %MON time_secondsf                =   1.1080000000000E+05
(PID.TID 0000.0001) %MON dynstat_eta_max              =   5.7985365460026E+00
(PID.TID 0000.0001) %MON dynstat_eta_min              =  -1.4171851647585E+01
(PID.TID 0000.0001) %MON dynstat_eta_mean             =  -2.5246187788688E+00
(PID.TID 0000.0001) %MON dynstat_eta_sd               =   4.9412342586217E+00
(PID.TID 0000.0001) %MON dynstat_eta_del2             =   1.9058605756217E-01
(PID.TID 0000.0001) %MON dynstat_uvel_max             =   5.8353424007667E-03
(PID.TID 0000.0001) %MON dynstat_uvel_min             =  -2.7474315138534E-02
(PID.TID 0000.0001) %MON dynstat_uvel_mean            =   1.0107603945181E-09
(PID.TID 0000.0001) %MON dynstat_uvel_sd              =   7.4425310064419E-04
(PID.TID 0000.0001) %MON dynstat_uvel_del2            =   1.1414425370627E-06
(PID.TID 0000.0001) %MON dynstat_vvel_max             =   1.9570518466382E-02
(PID.TID 0000.0001) %MON dynstat_vvel_min             =  -7.2089500755315E-03
(PID.TID 0000.0001) %MON dynstat_vvel_mean            =   1.8912136640143E-07
(PID.TID 0000.0001) %MON dynstat_vvel_sd              =   3.7008020615280E-04
(PID.TID 0000.0001) %MON dynstat_vvel_del2            =   9.7654153707736E-07
(PID.TID 0000.0001) %MON dynstat_wvel_max             =   1.1135739552625E-03
(PID.TID 0000.0001) %MON dynstat_wvel_min             =  -1.2966911932847E-03
(PID.TID 0000.0001) %MON dynstat_wvel_mean            =   2.1592888754474E-10
(PID.TID 0000.0001) %MON dynstat_wvel_sd              =   1.8379713041630E-05
(PID.TID 0000.0001) %MON dynstat_wvel_del2            =   7.6864002649079E-08
(PID.TID 0000.0001) %MON dynstat_theta_max            =   1.2000000000000E+00
(PID.TID 0000.0001) %MON dynstat_theta_min            =  -1.0000000000000E+00
(PID.TID 0000.0001) %MON dynstat_theta_mean           =   5.6516313035266E-01
(PID.TID 0000.0001) %MON dynstat_theta_sd             =   8.4895401902162E-01
(PID.TID 0000.0001) %MON dynstat_theta_del2           =   2.7429644314830E-06
(PID.TID 0000.0001) %MON dynstat_salt_max             =   3.4700000000000E+01
(PID.TID 0000.0001) %MON dynstat_salt_min             =   3.4000000000000E+01
(PID.TID 0000.0001) %MON dynstat_salt_mean            =   3.4497979230698E+01
(PID.TID 0000.0001) %MON dynstat_salt_sd              =   2.7011814214560E-01
(PID.TID 0000.0001) %MON dynstat_salt_del2            =   1.0843587280318E-06
(PID.TID 0000.0001) %MON advcfl_uvel_max              =   2.7474315138534E-03
(PID.TID 0000.0001) %MON advcfl_vvel_max              =   1.9570518466382E-03
(PID.TID 0000.0001) %MON advcfl_wvel_max              =   6.4834559664233E-03
(PID.TID 0000.0001) %MON advcfl_W_hf_max              =   6.4834559664233E-03
(PID.TID 0000.0001) %MON pe_b_mean                    =  -6.8212660764690E-01
(PID.TID 0000.0001) %MON ke_max                       =   2.8718862340381E-04
(PID.TID 0000.0001) %MON ke_mean                      =   3.4022762322890E-07
(PID.TID 0000.0001) %MON ke_vol                       =   4.6183037314146E+12
(PID.TID 0000.0001) // =======================================================
(PID.TID 0000.0001) // End MONITOR dynamic field statistics
(PID.TID 0000.0001) // =======================================================
(PID.TID 0000.0001) // =======================================================
(PID.TID 0000.0001) // Begin OBCS MONITOR field statistics
(PID.TID 0000.0001) // =======================================================
(PID.TID 0000.0001) %MON obc_N_vVel_max               =   1.5903739902395E-07
(PID.TID 0000.0001) %MON obc_N_vVel_min               =   1.5903739902395E-07
(PID.TID 0000.0001) %MON obc_N_vVel_mean              =   1.5903739902395E-07
(PID.TID 0000.0001) %MON obc_N_vVel_sd                =   4.0390151670884E-14
(PID.TID 0000.0001) %MON obc_N_vVel_Int               =   1.0496468335580E+01
(PID.TID 0000.0001) // =======================================================
(PID.TID 0000.0001) // End OBCS MONITOR field statistics
(PID.TID 0000.0001) // =======================================================
 cg2d: Sum(rhs),rhsMax =   3.00917530364496E+00  4.53044768756010E+02
(PID.TID 0000.0001)      cg2d_init_res =   3.20735780894410E-06
(PID.TID 0000.0001)      cg2d_iters(min,last) =      -1      75
(PID.TID 0000.0001)      cg2d_last_res =   7.58897688912172E-12
(PID.TID 0000.0001) // =======================================================
(PID.TID 0000.0001) // Begin MONITOR dynamic field statistics
(PID.TID 0000.0001) // =======================================================
(PID.TID 0000.0001) %MON time_tsnumber                =                  1109
(PID.TID 0000.0001) %MON time_secondsf                =   1.1090000000000E+05
(PID.TID 0000.0001) %MON dynstat_eta_max              =   5.7985389937360E+00
(PID.TID 0000.0001) %MON dynstat_eta_min              =  -1.4171839615176E+01
(PID.TID 0000.0001) %MON dynstat_eta_mean             =  -2.5246132029373E+00
(PID.TID 0000.0001) %MON dynstat_eta_sd               =   4.9412326552729E+00
(PID.TID 0000.0001) %MON dynstat_eta_del2             =   1.9058607468392E-01
(PID.TID 0000.0001) %MON dynstat_uvel_max             =   5.8498562433931E-03
(PID.TID 0000.0001) %MON dynstat_uvel_min             =  -2.7541170365063E-02
(PID.TID 0000.0001) %MON dynstat_uvel_mean            =   1.1119236783310E-09
(PID.TID 0000.0001) %MON dynstat_uvel_sd              =   7.4611996845118E-04
(PID.TID 0000.0001) %MON dynstat_uvel_del2            =   1.1442380566572E-06
(PID.TID 0000.0001) %MON dynstat_vvel_max             =   1.9608859970324E-02
(PID.TID 0000.0001) %MON dynstat_vvel_min             =  -7.2244699534725E-03
(PID.TID 0000.0001) %MON dynstat_vvel_mean            =   1.8464725440329E-07
(PID.TID 0000.0001) %MON dynstat_vvel_sd              =   3.7082015573191E-04
(PID.TID 0000.0001) %MON dynstat_vvel_del2            =   9.7856278427975E-07
(PID.TID 0000.0001) %MON dynstat_wvel_max             =   1.1161936665779E-03
(PID.TID 0000.0001) %MON dynstat_wvel_min             =  -1.3004917408597E-03
(PID.TID 0000.0001) %MON dynstat_wvel_mean            =   2.0257271185719E-10
(PID.TID 0000.0001) %MON dynstat_wvel_sd              =   1.8389434978158E-05
(PID.TID 0000.0001) %MON dynstat_wvel_del2            =   7.6846526629656E-08
(PID.TID 0000.0001) %MON dynstat_theta_max            =   1.2000000000000E+00
(PID.TID 0000.0001) %MON dynstat_theta_min            =  -1.0000000000000E+00
(PID.TID 0000.0001) %MON dynstat_theta_mean           =   5.6516249113133E-01
(PID.TID 0000.0001) %MON dynstat_theta_sd             =   8.4895374122079E-01
(PID.TID 0000.0001) %MON dynstat_theta_del2           =   2.7487205080786E-06
(PID.TID 0000.0001) %MON dynstat_salt_max             =   3.4700000000000E+01
(PID.TID 0000.0001) %MON dynstat_salt_min             =   3.4000000000000E+01
(PID.TID 0000.0001) %MON dynstat_salt_mean            =   3.4497978975522E+01
(PID.TID 0000.0001) %MON dynstat_salt_sd              =   2.7011803758739E-01
(PID.TID 0000.0001) %MON dynstat_salt_del2            =   1.0866350573777E-06
(PID.TID 0000.0001) %MON advcfl_uvel_max              =   2.7541170365063E-03
(PID.TID 0000.0001) %MON advcfl_vvel_max              =   1.9608859970324E-03
(PID.TID 0000.0001) %MON advcfl_wvel_max              =   6.5024587042987E-03
(PID.TID 0000.0001) %MON advcfl_W_hf_max              =   6.5024587042987E-03
(PID.TID 0000.0001) %MON pe_b_mean                    =  -6.8212494130646E-01
(PID.TID 0000.0001) %MON ke_max                       =   2.8880242733520E-04
(PID.TID 0000.0001) %MON ke_mean                      =   3.4186674186008E-07
(PID.TID 0000.0001) %MON ke_vol                       =   4.6183037644535E+12
(PID.TID 0000.0001) // =======================================================
(PID.TID 0000.0001) // End MONITOR dynamic field statistics
(PID.TID 0000.0001) // =======================================================
(PID.TID 0000.0001) // =======================================================
(PID.TID 0000.0001) // Begin OBCS MONITOR field statistics
(PID.TID 0000.0001) // =======================================================
(PID.TID 0000.0001) %MON obc_N_vVel_max               =   1.5593368646901E-07
(PID.TID 0000.0001) %MON obc_N_vVel_min               =   1.5593368646901E-07
(PID.TID 0000.0001) %MON obc_N_vVel_mean              =   1.5593368646901E-07
(PID.TID 0000.0001) %MON obc_N_vVel_sd                =  -1.1801359142106E-27
(PID.TID 0000.0001) %MON obc_N_vVel_Int               =   1.0291623306955E+01
(PID.TID 0000.0001) // =======================================================
(PID.TID 0000.0001) // End OBCS MONITOR field statistics
(PID.TID 0000.0001) // =======================================================
 cg2d: Sum(rhs),rhsMax =   3.00916871636230E+00  4.53044757005694E+02
(PID.TID 0000.0001)      cg2d_init_res =   3.21409748949750E-06
(PID.TID 0000.0001)      cg2d_iters(min,last) =      -1      75
(PID.TID 0000.0001)      cg2d_last_res =   7.60797117927139E-12
(PID.TID 0000.0001) // =======================================================
(PID.TID 0000.0001) // Begin MONITOR dynamic field statistics
(PID.TID 0000.0001) // =======================================================
(PID.TID 0000.0001) %MON time_tsnumber                =                  1110
(PID.TID 0000.0001) %MON time_secondsf                =   1.1100000000000E+05
(PID.TID 0000.0001) %MON dynstat_eta_max              =   5.7985414544940E+00
(PID.TID 0000.0001) %MON dynstat_eta_min              =  -1.4171827547576E+01
(PID.TID 0000.0001) %MON dynstat_eta_mean             =  -2.5246076109139E+00
(PID.TID 0000.0001) %MON dynstat_eta_sd               =   4.9412310450402E+00
(PID.TID 0000.0001) %MON dynstat_eta_del2             =   1.9058609181610E-01
(PID.TID 0000.0001) %MON dynstat_uvel_max             =   5.8644026084842E-03
(PID.TID 0000.0001) %MON dynstat_uvel_min             =  -2.7608107110385E-02
(PID.TID 0000.0001) %MON dynstat_uvel_mean            =   1.2112831619930E-09
(PID.TID 0000.0001) %MON dynstat_uvel_sd              =   7.4799062646283E-04
(PID.TID 0000.0001) %MON dynstat_uvel_del2            =   1.1470402352052E-06
(PID.TID 0000.0001) %MON dynstat_vvel_max             =   1.9647229181117E-02
(PID.TID 0000.0001) %MON dynstat_vvel_min             =  -7.2400130972810E-03
(PID.TID 0000.0001) %MON dynstat_vvel_mean            =   1.7813268240247E-07
(PID.TID 0000.0001) %MON dynstat_vvel_sd              =   3.7156247656560E-04
(PID.TID 0000.0001) %MON dynstat_vvel_del2            =   9.8059810217801E-07
(PID.TID 0000.0001) %MON dynstat_wvel_max             =   1.1188171335844E-03
(PID.TID 0000.0001) %MON dynstat_wvel_min             =  -1.3042998914151E-03
(PID.TID 0000.0001) %MON dynstat_wvel_mean            =   1.9024019178907E-10
(PID.TID 0000.0001) %MON dynstat_wvel_sd              =   1.8402902737219E-05
(PID.TID 0000.0001) %MON dynstat_wvel_del2            =   7.6852363221092E-08
(PID.TID 0000.0001) %MON dynstat_theta_max            =   1.2000000000000E+00
(PID.TID 0000.0001) %MON dynstat_theta_min            =  -1.0000000000000E+00
(PID.TID 0000.0001) %MON dynstat_theta_mean           =   5.6516185076057E-01
(PID.TID 0000.0001) %MON dynstat_theta_sd             =   8.4895346284415E-01
(PID.TID 0000.0001) %MON dynstat_theta_del2           =   2.7544743191026E-06
(PID.TID 0000.0001) %MON dynstat_salt_max             =   3.4700000000000E+01
(PID.TID 0000.0001) %MON dynstat_salt_min             =   3.4000000000000E+01
(PID.TID 0000.0001) %MON dynstat_salt_mean            =   3.4497978719885E+01
(PID.TID 0000.0001) %MON dynstat_salt_sd              =   2.7011793280703E-01
(PID.TID 0000.0001) %MON dynstat_salt_del2            =   1.0889123142398E-06
(PID.TID 0000.0001) %MON advcfl_uvel_max              =   2.7608107110385E-03
(PID.TID 0000.0001) %MON advcfl_vvel_max              =   1.9647229181117E-03
(PID.TID 0000.0001) %MON advcfl_wvel_max              =   6.5214994570757E-03
(PID.TID 0000.0001) %MON advcfl_W_hf_max              =   6.5214994570757E-03
(PID.TID 0000.0001) %MON pe_b_mean                    =  -6.8212327021979E-01
(PID.TID 0000.0001) %MON ke_max                       =   2.9042395388986E-04
(PID.TID 0000.0001) %MON ke_mean                      =   3.4351349011287E-07
(PID.TID 0000.0001) %MON ke_vol                       =   4.6183037975746E+12
(PID.TID 0000.0001) // =======================================================
(PID.TID 0000.0001) // End MONITOR dynamic field statistics
(PID.TID 0000.0001) // =======================================================
(PID.TID 0000.0001) // =======================================================
(PID.TID 0000.0001) // Begin OBCS MONITOR field statistics
(PID.TID 0000.0001) // =======================================================
(PID.TID 0000.0001) %MON obc_N_vVel_max               =   1.5079848977526E-07
(PID.TID 0000.0001) %MON obc_N_vVel_min               =   1.5079848977526E-07
(PID.TID 0000.0001) %MON obc_N_vVel_mean              =   1.5079848977526E-07
(PID.TID 0000.0001) %MON obc_N_vVel_sd                =  -1.2621774483536E-29
(PID.TID 0000.0001) %MON obc_N_vVel_Int               =   9.9527003251669E+00
(PID.TID 0000.0001) // =======================================================
(PID.TID 0000.0001) // End OBCS MONITOR field statistics
(PID.TID 0000.0001) // =======================================================
 cg2d: Sum(rhs),rhsMax =   3.00916211354090E+00  4.53044744312408E+02
(PID.TID 0000.0001)      cg2d_init_res =   3.22118104136801E-06
(PID.TID 0000.0001)      cg2d_iters(min,last) =      -1      75
(PID.TID 0000.0001)      cg2d_last_res =   7.62752017973787E-12
(PID.TID 0000.0001) // =======================================================
(PID.TID 0000.0001) // Begin MONITOR dynamic field statistics
(PID.TID 0000.0001) // =======================================================
(PID.TID 0000.0001) %MON time_tsnumber                =                  1111
(PID.TID 0000.0001) %MON time_secondsf                =   1.1110000000000E+05
(PID.TID 0000.0001) %MON dynstat_eta_max              =   5.7985439317559E+00
(PID.TID 0000.0001) %MON dynstat_eta_min              =  -1.4171815440965E+01
(PID.TID 0000.0001) %MON dynstat_eta_mean             =  -2.5246020005995E+00
(PID.TID 0000.0001) %MON dynstat_eta_sd               =   4.9412294272506E+00
(PID.TID 0000.0001) %MON dynstat_eta_del2             =   1.9058610895640E-01
(PID.TID 0000.0001) %MON dynstat_uvel_max             =   5.8789815338995E-03
(PID.TID 0000.0001) %MON dynstat_uvel_min             =  -2.7675125146109E-02
(PID.TID 0000.0001) %MON dynstat_uvel_mean            =   1.3077721584942E-09
(PID.TID 0000.0001) %MON dynstat_uvel_sd              =   7.4986508107828E-04
(PID.TID 0000.0001) %MON dynstat_uvel_del2            =   1.1498490730438E-06
(PID.TID 0000.0001) %MON dynstat_vvel_max             =   1.9685626005923E-02
(PID.TID 0000.0001) %MON dynstat_vvel_min             =  -7.2555794734210E-03
(PID.TID 0000.0001) %MON dynstat_vvel_mean            =   1.6965812945934E-07
(PID.TID 0000.0001) %MON dynstat_vvel_sd              =   3.7230748208435E-04
(PID.TID 0000.0001) %MON dynstat_vvel_del2            =   9.8264943985356E-07
(PID.TID 0000.0001) %MON dynstat_wvel_max             =   1.1214443537102E-03
(PID.TID 0000.0001) %MON dynstat_wvel_min             =  -1.3081156372454E-03
(PID.TID 0000.0001) %MON dynstat_wvel_mean            =   1.7909461363238E-10
(PID.TID 0000.0001) %MON dynstat_wvel_sd              =   1.8421366545403E-05
(PID.TID 0000.0001) %MON dynstat_wvel_del2            =   7.6888821223237E-08
(PID.TID 0000.0001) %MON dynstat_theta_max            =   1.2000000000000E+00
(PID.TID 0000.0001) %MON dynstat_theta_min            =  -1.0000000000000E+00
(PID.TID 0000.0001) %MON dynstat_theta_mean           =   5.6516120923859E-01
(PID.TID 0000.0001) %MON dynstat_theta_sd             =   8.4895318389064E-01
(PID.TID 0000.0001) %MON dynstat_theta_del2           =   2.7602234934672E-06
(PID.TID 0000.0001) %MON dynstat_salt_max             =   3.4700000000000E+01
(PID.TID 0000.0001) %MON dynstat_salt_min             =   3.4000000000000E+01
(PID.TID 0000.0001) %MON dynstat_salt_mean            =   3.4497978463788E+01
(PID.TID 0000.0001) %MON dynstat_salt_sd              =   2.7011782780404E-01
(PID.TID 0000.0001) %MON dynstat_salt_del2            =   1.0911898782059E-06
(PID.TID 0000.0001) %MON advcfl_uvel_max              =   2.7675125146109E-03
(PID.TID 0000.0001) %MON advcfl_vvel_max              =   1.9685626005923E-03
(PID.TID 0000.0001) %MON advcfl_wvel_max              =   6.5405781862268E-03
(PID.TID 0000.0001) %MON advcfl_W_hf_max              =   6.5405781862268E-03
(PID.TID 0000.0001) %MON pe_b_mean                    =  -6.8212159396665E-01
(PID.TID 0000.0001) %MON ke_max                       =   2.9205323112425E-04
(PID.TID 0000.0001) %MON ke_mean                      =   3.4516801558858E-07
(PID.TID 0000.0001) %MON ke_vol                       =   4.6183038307912E+12
(PID.TID 0000.0001) // =======================================================
(PID.TID 0000.0001) // End MONITOR dynamic field statistics
(PID.TID 0000.0001) // =======================================================
(PID.TID 0000.0001) // =======================================================
(PID.TID 0000.0001) // Begin OBCS MONITOR field statistics
(PID.TID 0000.0001) // =======================================================
(PID.TID 0000.0001) %MON obc_N_vVel_max               =   1.4369430034554E-07
(PID.TID 0000.0001) %MON obc_N_vVel_min               =   1.4369430034554E-07
(PID.TID 0000.0001) %MON obc_N_vVel_mean              =   1.4369430034554E-07
(PID.TID 0000.0001) %MON obc_N_vVel_sd                =   2.5925074565916E-14
(PID.TID 0000.0001) %MON obc_N_vVel_Int               =   9.4838238228054E+00
(PID.TID 0000.0001) // =======================================================
(PID.TID 0000.0001) // End OBCS MONITOR field statistics
(PID.TID 0000.0001) // =======================================================
 cg2d: Sum(rhs),rhsMax =   3.00915549262530E+00  4.53044730683459E+02
(PID.TID 0000.0001)      cg2d_init_res =   3.22863715974715E-06
(PID.TID 0000.0001)      cg2d_iters(min,last) =      -1      75
(PID.TID 0000.0001)      cg2d_last_res =   7.64762852809585E-12
(PID.TID 0000.0001) // =======================================================
(PID.TID 0000.0001) // Begin MONITOR dynamic field statistics
(PID.TID 0000.0001) // =======================================================
(PID.TID 0000.0001) %MON time_tsnumber                =                  1112
(PID.TID 0000.0001) %MON time_secondsf                =   1.1120000000000E+05
(PID.TID 0000.0001) %MON dynstat_eta_max              =   5.7985464288024E+00
(PID.TID 0000.0001) %MON dynstat_eta_min              =  -1.4171803291755E+01
(PID.TID 0000.0001) %MON dynstat_eta_mean             =  -2.5245963698909E+00
(PID.TID 0000.0001) %MON dynstat_eta_sd               =   4.9412278012889E+00
(PID.TID 0000.0001) %MON dynstat_eta_del2             =   1.9058612610282E-01
(PID.TID 0000.0001) %MON dynstat_uvel_max             =   5.8935930568804E-03
(PID.TID 0000.0001) %MON dynstat_uvel_min             =  -2.7742224243188E-02
(PID.TID 0000.0001) %MON dynstat_uvel_mean            =   1.4003555669443E-09
(PID.TID 0000.0001) %MON dynstat_uvel_sd              =   7.5174333887057E-04
(PID.TID 0000.0001) %MON dynstat_uvel_del2            =   1.1526645731966E-06
(PID.TID 0000.0001) %MON dynstat_vvel_max             =   1.9724050355081E-02
(PID.TID 0000.0001) %MON dynstat_vvel_min             =  -7.2711690454934E-03
(PID.TID 0000.0001) %MON dynstat_vvel_mean            =   1.5932925194948E-07
(PID.TID 0000.0001) %MON dynstat_vvel_sd              =   3.7305541503640E-04
(PID.TID 0000.0001) %MON dynstat_vvel_del2            =   9.8471813130855E-07
(PID.TID 0000.0001) %MON dynstat_wvel_max             =   1.1240753242745E-03
(PID.TID 0000.0001) %MON dynstat_wvel_min             =  -1.3119389707857E-03
(PID.TID 0000.0001) %MON dynstat_wvel_mean            =   1.6928489227058E-10
(PID.TID 0000.0001) %MON dynstat_wvel_sd              =   1.8445804503872E-05
(PID.TID 0000.0001) %MON dynstat_wvel_del2            =   7.6961500128289E-08
(PID.TID 0000.0001) %MON dynstat_theta_max            =   1.2000000000000E+00
(PID.TID 0000.0001) %MON dynstat_theta_min            =  -1.0000000000000E+00
(PID.TID 0000.0001) %MON dynstat_theta_mean           =   5.6516056656353E-01
(PID.TID 0000.0001) %MON dynstat_theta_sd             =   8.4895290435874E-01
(PID.TID 0000.0001) %MON dynstat_theta_del2           =   2.7659661817361E-06
(PID.TID 0000.0001) %MON dynstat_salt_max             =   3.4700000000000E+01
(PID.TID 0000.0001) %MON dynstat_salt_min             =   3.4000000000000E+01
(PID.TID 0000.0001) %MON dynstat_salt_mean            =   3.4497978207229E+01
(PID.TID 0000.0001) %MON dynstat_salt_sd              =   2.7011772257809E-01
(PID.TID 0000.0001) %MON dynstat_salt_del2            =   1.0934673218962E-06
(PID.TID 0000.0001) %MON advcfl_uvel_max              =   2.7742224243188E-03
(PID.TID 0000.0001) %MON advcfl_vvel_max              =   1.9724050355081E-03
(PID.TID 0000.0001) %MON advcfl_wvel_max              =   6.5596948539286E-03
(PID.TID 0000.0001) %MON advcfl_W_hf_max              =   6.5596948539286E-03
(PID.TID 0000.0001) %MON pe_b_mean                    =  -6.8211991215092E-01
(PID.TID 0000.0001) %MON ke_max                       =   2.9369028719100E-04
(PID.TID 0000.0001) %MON ke_mean                      =   3.4683044070590E-07
(PID.TID 0000.0001) %MON ke_vol                       =   4.6183038641164E+12
(PID.TID 0000.0001) // =======================================================
(PID.TID 0000.0001) // End MONITOR dynamic field statistics
(PID.TID 0000.0001) // =======================================================
(PID.TID 0000.0001) // =======================================================
(PID.TID 0000.0001) // Begin OBCS MONITOR field statistics
(PID.TID 0000.0001) // =======================================================
(PID.TID 0000.0001) %MON obc_N_vVel_max               =   1.3470880814200E-07
(PID.TID 0000.0001) %MON obc_N_vVel_min               =   1.3470880814200E-07
(PID.TID 0000.0001) %MON obc_N_vVel_mean              =   1.3470880814200E-07
(PID.TID 0000.0001) %MON obc_N_vVel_sd                =   3.5615843884364E-14
(PID.TID 0000.0001) %MON obc_N_vVel_Int               =   8.8907813373718E+00
(PID.TID 0000.0001) // =======================================================
(PID.TID 0000.0001) // End OBCS MONITOR field statistics
(PID.TID 0000.0001) // =======================================================
 cg2d: Sum(rhs),rhsMax =   3.00914885113934E+00  4.53044716136765E+02
(PID.TID 0000.0001)      cg2d_init_res =   3.23648616137223E-06
(PID.TID 0000.0001)      cg2d_iters(min,last) =      -1      75
(PID.TID 0000.0001)      cg2d_last_res =   7.66824892514601E-12
(PID.TID 0000.0001) // =======================================================
(PID.TID 0000.0001) // Begin MONITOR dynamic field statistics
(PID.TID 0000.0001) // =======================================================
(PID.TID 0000.0001) %MON time_tsnumber                =                  1113
(PID.TID 0000.0001) %MON time_secondsf                =   1.1130000000000E+05
(PID.TID 0000.0001) %MON dynstat_eta_max              =   5.7985489486769E+00
(PID.TID 0000.0001) %MON dynstat_eta_min              =  -1.4171791096616E+01
(PID.TID 0000.0001) %MON dynstat_eta_mean             =  -2.5245907168105E+00
(PID.TID 0000.0001) %MON dynstat_eta_sd               =   4.9412261666063E+00
(PID.TID 0000.0001) %MON dynstat_eta_del2             =   1.9058614325373E-01
(PID.TID 0000.0001) %MON dynstat_uvel_max             =   5.9082372139363E-03
(PID.TID 0000.0001) %MON dynstat_uvel_min             =  -2.7809404171853E-02
(PID.TID 0000.0001) %MON dynstat_uvel_mean            =   1.4880457416330E-09
(PID.TID 0000.0001) %MON dynstat_uvel_sd              =   7.5362540660857E-04
(PID.TID 0000.0001) %MON dynstat_uvel_del2            =   1.1554867416735E-06
(PID.TID 0000.0001) %MON dynstat_vvel_max             =   1.9762502141990E-02
(PID.TID 0000.0001) %MON dynstat_vvel_min             =  -7.2867817743303E-03
(PID.TID 0000.0001) %MON dynstat_vvel_mean            =   1.4727566395505E-07
(PID.TID 0000.0001) %MON dynstat_vvel_sd              =   3.7380643590575E-04
(PID.TID 0000.0001) %MON dynstat_vvel_del2            =   9.8680482771247E-07
(PID.TID 0000.0001) %MON dynstat_wvel_max             =   1.1267100425723E-03
(PID.TID 0000.0001) %MON dynstat_wvel_min             =  -1.3157698844773E-03
(PID.TID 0000.0001) %MON dynstat_wvel_mean            =   1.6094427613694E-10
(PID.TID 0000.0001) %MON dynstat_wvel_sd              =   1.8476871118396E-05
(PID.TID 0000.0001) %MON dynstat_wvel_del2            =   7.7073976445378E-08
(PID.TID 0000.0001) %MON dynstat_theta_max            =   1.2000000000000E+00
(PID.TID 0000.0001) %MON dynstat_theta_min            =  -1.0000000000000E+00
(PID.TID 0000.0001) %MON dynstat_theta_mean           =   5.6515992273378E-01
(PID.TID 0000.0001) %MON dynstat_theta_sd             =   8.4895262424706E-01
(PID.TID 0000.0001) %MON dynstat_theta_del2           =   2.7717014971795E-06
(PID.TID 0000.0001) %MON dynstat_salt_max             =   3.4700000000000E+01
(PID.TID 0000.0001) %MON dynstat_salt_min             =   3.4000000000000E+01
(PID.TID 0000.0001) %MON dynstat_salt_mean            =   3.4497977950208E+01
(PID.TID 0000.0001) %MON dynstat_salt_sd              =   2.7011761712865E-01
(PID.TID 0000.0001) %MON dynstat_salt_del2            =   1.0957444292026E-06
(PID.TID 0000.0001) %MON advcfl_uvel_max              =   2.7809404171853E-03
(PID.TID 0000.0001) %MON advcfl_vvel_max              =   1.9762502141990E-03
(PID.TID 0000.0001) %MON advcfl_wvel_max              =   6.5788494223864E-03
(PID.TID 0000.0001) %MON advcfl_W_hf_max              =   6.5788494223864E-03
(PID.TID 0000.0001) %MON pe_b_mean                    =  -6.8211822440608E-01
(PID.TID 0000.0001) %MON ke_max                       =   2.9533515034224E-04
(PID.TID 0000.0001) %MON ke_mean                      =   3.4850085812964E-07
(PID.TID 0000.0001) %MON ke_vol                       =   4.6183038975628E+12
(PID.TID 0000.0001) // =======================================================
(PID.TID 0000.0001) // End MONITOR dynamic field statistics
(PID.TID 0000.0001) // =======================================================
(PID.TID 0000.0001) // =======================================================
(PID.TID 0000.0001) // Begin OBCS MONITOR field statistics
(PID.TID 0000.0001) // =======================================================
(PID.TID 0000.0001) %MON obc_N_vVel_max               =   1.2395384442053E-07
(PID.TID 0000.0001) %MON obc_N_vVel_min               =   1.2395384442053E-07
(PID.TID 0000.0001) %MON obc_N_vVel_mean              =   1.2395384442053E-07
(PID.TID 0000.0001) %MON obc_N_vVel_sd                =   2.3498992183809E-14
(PID.TID 0000.0001) %MON obc_N_vVel_Int               =   8.1809537317547E+00
(PID.TID 0000.0001) // =======================================================
(PID.TID 0000.0001) // End OBCS MONITOR field statistics
(PID.TID 0000.0001) // =======================================================
 cg2d: Sum(rhs),rhsMax =   3.00914218671028E+00  4.53044700701438E+02
(PID.TID 0000.0001)      cg2d_init_res =   3.24472455090423E-06
(PID.TID 0000.0001)      cg2d_iters(min,last) =      -1      75
(PID.TID 0000.0001)      cg2d_last_res =   7.68935021745641E-12
(PID.TID 0000.0001) // =======================================================
(PID.TID 0000.0001) // Begin MONITOR dynamic field statistics
(PID.TID 0000.0001) // =======================================================
(PID.TID 0000.0001) %MON time_tsnumber                =                  1114
(PID.TID 0000.0001) %MON time_secondsf                =   1.1140000000000E+05
(PID.TID 0000.0001) %MON dynstat_eta_max              =   5.7985514941297E+00
(PID.TID 0000.0001) %MON dynstat_eta_min              =  -1.4171778852520E+01
(PID.TID 0000.0001) %MON dynstat_eta_mean             =  -2.5245850395300E+00
(PID.TID 0000.0001) %MON dynstat_eta_sd               =   4.9412245227260E+00
(PID.TID 0000.0001) %MON dynstat_eta_del2             =   1.9058616040782E-01
(PID.TID 0000.0001) %MON dynstat_uvel_max             =   5.9229140409913E-03
(PID.TID 0000.0001) %MON dynstat_uvel_min             =  -2.7876664701283E-02
(PID.TID 0000.0001) %MON dynstat_uvel_mean            =   1.5699153862150E-09
(PID.TID 0000.0001) %MON dynstat_uvel_sd              =   7.5551129127503E-04
(PID.TID 0000.0001) %MON dynstat_uvel_del2            =   1.1583155877009E-06
(PID.TID 0000.0001) %MON dynstat_vvel_max             =   1.9800981282971E-02
(PID.TID 0000.0001) %MON dynstat_vvel_min             =  -7.3024176182424E-03
(PID.TID 0000.0001) %MON dynstat_vvel_mean            =   1.3364940348371E-07
(PID.TID 0000.0001) %MON dynstat_vvel_sd              =   3.7456061581517E-04
(PID.TID 0000.0001) %MON dynstat_vvel_del2            =   9.8890946825440E-07
(PID.TID 0000.0001) %MON dynstat_wvel_max             =   1.1293485057797E-03
(PID.TID 0000.0001) %MON dynstat_wvel_min             =  -1.3196083709432E-03
(PID.TID 0000.0001) %MON dynstat_wvel_mean            =   1.5418797179983E-10
(PID.TID 0000.0001) %MON dynstat_wvel_sd              =   1.8514865398468E-05
(PID.TID 0000.0001) %MON dynstat_wvel_del2            =   7.7227624971963E-08
(PID.TID 0000.0001) %MON dynstat_theta_max            =   1.2000000000000E+00
(PID.TID 0000.0001) %MON dynstat_theta_min            =  -1.0000000000000E+00
(PID.TID 0000.0001) %MON dynstat_theta_mean           =   5.6515927774777E-01
(PID.TID 0000.0001) %MON dynstat_theta_sd             =   8.4895234355503E-01
(PID.TID 0000.0001) %MON dynstat_theta_del2           =   2.7774296568226E-06
(PID.TID 0000.0001) %MON dynstat_salt_max             =   3.4700000000000E+01
(PID.TID 0000.0001) %MON dynstat_salt_min             =   3.4000000000000E+01
(PID.TID 0000.0001) %MON dynstat_salt_mean            =   3.4497977692724E+01
(PID.TID 0000.0001) %MON dynstat_salt_sd              =   2.7011751145542E-01
(PID.TID 0000.0001) %MON dynstat_salt_del2            =   1.0980212113939E-06
(PID.TID 0000.0001) %MON advcfl_uvel_max              =   2.7876664701283E-03
(PID.TID 0000.0001) %MON advcfl_vvel_max              =   1.9800981282971E-03
(PID.TID 0000.0001) %MON advcfl_wvel_max              =   6.5980418547158E-03
(PID.TID 0000.0001) %MON advcfl_W_hf_max              =   6.5980418547158E-03
(PID.TID 0000.0001) %MON pe_b_mean                    =  -6.8211653039964E-01
(PID.TID 0000.0001) %MON ke_max                       =   2.9698784892150E-04
(PID.TID 0000.0001) %MON ke_mean                      =   3.5017932782173E-07
(PID.TID 0000.0001) %MON ke_vol                       =   4.6183039311421E+12
(PID.TID 0000.0001) // =======================================================
(PID.TID 0000.0001) // End MONITOR dynamic field statistics
(PID.TID 0000.0001) // =======================================================
(PID.TID 0000.0001) // =======================================================
(PID.TID 0000.0001) // Begin OBCS MONITOR field statistics
(PID.TID 0000.0001) // =======================================================
(PID.TID 0000.0001) %MON obc_N_vVel_max               =   1.1156412985386E-07
(PID.TID 0000.0001) %MON obc_N_vVel_min               =   1.1156412985386E-07
(PID.TID 0000.0001) %MON obc_N_vVel_mean              =   1.1156412985386E-07
(PID.TID 0000.0001) %MON obc_N_vVel_sd                =  -9.1665637186682E-28
(PID.TID 0000.0001) %MON obc_N_vVel_Int               =   7.3632325703551E+00
(PID.TID 0000.0001) // =======================================================
(PID.TID 0000.0001) // End OBCS MONITOR field statistics
(PID.TID 0000.0001) // =======================================================
 cg2d: Sum(rhs),rhsMax =   3.00913549710465E+00  4.53044684416757E+02
(PID.TID 0000.0001)      cg2d_init_res =   3.25332864247734E-06
(PID.TID 0000.0001)      cg2d_iters(min,last) =      -1      75
(PID.TID 0000.0001)      cg2d_last_res =   7.71090333943510E-12
(PID.TID 0000.0001) // =======================================================
(PID.TID 0000.0001) // Begin MONITOR dynamic field statistics
(PID.TID 0000.0001) // =======================================================
(PID.TID 0000.0001) %MON time_tsnumber                =                  1115
(PID.TID 0000.0001) %MON time_secondsf                =   1.1150000000000E+05
(PID.TID 0000.0001) %MON dynstat_eta_max              =   5.7985540676103E+00
(PID.TID 0000.0001) %MON dynstat_eta_min              =  -1.4171766556788E+01
(PID.TID 0000.0001) %MON dynstat_eta_mean             =  -2.5245793363945E+00
(PID.TID 0000.0001) %MON dynstat_eta_sd               =   4.9412228692501E+00
(PID.TID 0000.0001) %MON dynstat_eta_del2             =   1.9058617756414E-01
(PID.TID 0000.0001) %MON dynstat_uvel_max             =   5.9376235733133E-03
(PID.TID 0000.0001) %MON dynstat_uvel_min             =  -2.7944005599749E-02
(PID.TID 0000.0001) %MON dynstat_uvel_mean            =   1.6451094965349E-09
(PID.TID 0000.0001) %MON dynstat_uvel_sd              =   7.5740100007538E-04
(PID.TID 0000.0001) %MON dynstat_uvel_del2            =   1.1611511237507E-06
(PID.TID 0000.0001) %MON dynstat_vvel_max             =   1.9839487697017E-02
(PID.TID 0000.0001) %MON dynstat_vvel_min             =  -7.3180765331031E-03
(PID.TID 0000.0001) %MON dynstat_vvel_mean            =   1.1862308490031E-07
(PID.TID 0000.0001) %MON dynstat_vvel_sd              =   3.7531793423480E-04
(PID.TID 0000.0001) %MON dynstat_vvel_del2            =   9.9103129080310E-07
(PID.TID 0000.0001) %MON dynstat_wvel_max             =   1.1319907110449E-03
(PID.TID 0000.0001) %MON dynstat_wvel_min             =  -1.3234544227972E-03
(PID.TID 0000.0001) %MON dynstat_wvel_mean            =   1.4911200760049E-10
(PID.TID 0000.0001) %MON dynstat_wvel_sd              =   1.8559720414961E-05
(PID.TID 0000.0001) %MON dynstat_wvel_del2            =   7.7421585684120E-08
(PID.TID 0000.0001) %MON dynstat_theta_max            =   1.2000000000000E+00
(PID.TID 0000.0001) %MON dynstat_theta_min            =  -1.0000000000000E+00
(PID.TID 0000.0001) %MON dynstat_theta_mean           =   5.6515863160407E-01
(PID.TID 0000.0001) %MON dynstat_theta_sd             =   8.4895206228058E-01
(PID.TID 0000.0001) %MON dynstat_theta_del2           =   2.7831513409273E-06
(PID.TID 0000.0001) %MON dynstat_salt_max             =   3.4700000000000E+01
(PID.TID 0000.0001) %MON dynstat_salt_min             =   3.4000000000000E+01
(PID.TID 0000.0001) %MON dynstat_salt_mean            =   3.4497977434776E+01
(PID.TID 0000.0001) %MON dynstat_salt_sd              =   2.7011740555765E-01
(PID.TID 0000.0001) %MON dynstat_salt_del2            =   1.1002979020423E-06
(PID.TID 0000.0001) %MON advcfl_uvel_max              =   2.7944005599749E-03
(PID.TID 0000.0001) %MON advcfl_vvel_max              =   1.9839487697017E-03
(PID.TID 0000.0001) %MON advcfl_wvel_max              =   6.6172721139861E-03
(PID.TID 0000.0001) %MON advcfl_W_hf_max              =   6.6172721139861E-03
(PID.TID 0000.0001) %MON pe_b_mean                    =  -6.8211482983761E-01
(PID.TID 0000.0001) %MON ke_max                       =   2.9864841136518E-04
(PID.TID 0000.0001) %MON ke_mean                      =   3.5186587585242E-07
(PID.TID 0000.0001) %MON ke_vol                       =   4.6183039648652E+12
(PID.TID 0000.0001) // =======================================================
(PID.TID 0000.0001) // End MONITOR dynamic field statistics
(PID.TID 0000.0001) // =======================================================
(PID.TID 0000.0001) // =======================================================
(PID.TID 0000.0001) // Begin OBCS MONITOR field statistics
(PID.TID 0000.0001) // =======================================================
(PID.TID 0000.0001) %MON obc_N_vVel_max               =   9.7695608855472E-08
(PID.TID 0000.0001) %MON obc_N_vVel_min               =   9.7695608855470E-08
(PID.TID 0000.0001) %MON obc_N_vVel_mean              =   9.7695608855470E-08
(PID.TID 0000.0001) %MON obc_N_vVel_sd                =   2.3799204397389E-14
(PID.TID 0000.0001) %MON obc_N_vVel_Int               =   6.4479101844610E+00
(PID.TID 0000.0001) // =======================================================
(PID.TID 0000.0001) // End OBCS MONITOR field statistics
(PID.TID 0000.0001) // =======================================================
 cg2d: Sum(rhs),rhsMax =   3.00912878025561E+00  4.53044667331850E+02
(PID.TID 0000.0001)      cg2d_init_res =   3.26226447078299E-06
(PID.TID 0000.0001)      cg2d_iters(min,last) =      -1      75
(PID.TID 0000.0001)      cg2d_last_res =   7.73285132194227E-12
(PID.TID 0000.0001) // =======================================================
(PID.TID 0000.0001) // Begin MONITOR dynamic field statistics
(PID.TID 0000.0001) // =======================================================
(PID.TID 0000.0001) %MON time_tsnumber                =                  1116
(PID.TID 0000.0001) %MON time_secondsf                =   1.1160000000000E+05
(PID.TID 0000.0001) %MON dynstat_eta_max              =   5.7985566712080E+00
(PID.TID 0000.0001) %MON dynstat_eta_min              =  -1.4171754207125E+01
(PID.TID 0000.0001) %MON dynstat_eta_mean             =  -2.5245736059437E+00
(PID.TID 0000.0001) %MON dynstat_eta_sd               =   4.9412212058662E+00
(PID.TID 0000.0001) %MON dynstat_eta_del2             =   1.9058619472219E-01
(PID.TID 0000.0001) %MON dynstat_uvel_max             =   5.9523658456504E-03
(PID.TID 0000.0001) %MON dynstat_uvel_min             =  -2.8011426634214E-02
(PID.TID 0000.0001) %MON dynstat_uvel_mean            =   1.7128536792719E-09
(PID.TID 0000.0001) %MON dynstat_uvel_sd              =   7.5929454043204E-04
(PID.TID 0000.0001) %MON dynstat_uvel_del2            =   1.1639933656273E-06
(PID.TID 0000.0001) %MON dynstat_vvel_max             =   1.9878021305598E-02
(PID.TID 0000.0001) %MON dynstat_vvel_min             =  -7.3337584726154E-03
(PID.TID 0000.0001) %MON dynstat_vvel_mean            =   1.0238776658467E-07
(PID.TID 0000.0001) %MON dynstat_vvel_sd              =   3.7607828153328E-04
(PID.TID 0000.0001) %MON dynstat_vvel_del2            =   9.9316888120274E-07
(PID.TID 0000.0001) %MON dynstat_wvel_max             =   1.1346366554254E-03
(PID.TID 0000.0001) %MON dynstat_wvel_min             =  -1.3273080327223E-03
(PID.TID 0000.0001) %MON dynstat_wvel_mean            =   1.4579129134909E-10
(PID.TID 0000.0001) %MON dynstat_wvel_sd              =   1.8611014579191E-05
(PID.TID 0000.0001) %MON dynstat_wvel_del2            =   7.7652873970131E-08
(PID.TID 0000.0001) %MON dynstat_theta_max            =   1.2000000000000E+00
(PID.TID 0000.0001) %MON dynstat_theta_min            =  -1.0000000000000E+00
(PID.TID 0000.0001) %MON dynstat_theta_mean           =   5.6515798430129E-01
(PID.TID 0000.0001) %MON dynstat_theta_sd             =   8.4895178041825E-01
(PID.TID 0000.0001) %MON dynstat_theta_del2           =   2.7888682586890E-06
(PID.TID 0000.0001) %MON dynstat_salt_max             =   3.4700000000000E+01
(PID.TID 0000.0001) %MON dynstat_salt_min             =   3.4000000000000E+01
(PID.TID 0000.0001) %MON dynstat_salt_mean            =   3.4497977176364E+01
(PID.TID 0000.0001) %MON dynstat_salt_sd              =   2.7011729943346E-01
(PID.TID 0000.0001) %MON dynstat_salt_del2            =   1.1025749376322E-06
(PID.TID 0000.0001) %MON advcfl_uvel_max              =   2.8011426634214E-03
(PID.TID 0000.0001) %MON advcfl_vvel_max              =   1.9878021305598E-03
(PID.TID 0000.0001) %MON advcfl_wvel_max              =   6.6365401636113E-03
(PID.TID 0000.0001) %MON advcfl_W_hf_max              =   6.6365401636113E-03
(PID.TID 0000.0001) %MON pe_b_mean                    =  -6.8211312246825E-01
(PID.TID 0000.0001) %MON ke_max                       =   3.0031686619973E-04
(PID.TID 0000.0001) %MON ke_mean                      =   3.5356049500727E-07
(PID.TID 0000.0001) %MON ke_vol                       =   4.6183039987418E+12
(PID.TID 0000.0001) // =======================================================
(PID.TID 0000.0001) // End MONITOR dynamic field statistics
(PID.TID 0000.0001) // =======================================================
(PID.TID 0000.0001) // =======================================================
(PID.TID 0000.0001) // Begin OBCS MONITOR field statistics
(PID.TID 0000.0001) // =======================================================
(PID.TID 0000.0001) %MON obc_N_vVel_max               =   8.2523574887986E-08
(PID.TID 0000.0001) %MON obc_N_vVel_min               =   8.2523574887984E-08
(PID.TID 0000.0001) %MON obc_N_vVel_mean              =   8.2523574887984E-08
(PID.TID 0000.0001) %MON obc_N_vVel_sd                =   2.1972320632907E-14
(PID.TID 0000.0001) %MON obc_N_vVel_Int               =   5.4465559426070E+00
(PID.TID 0000.0001) // =======================================================
(PID.TID 0000.0001) // End OBCS MONITOR field statistics
(PID.TID 0000.0001) // =======================================================
 cg2d: Sum(rhs),rhsMax =   3.00912203428845E+00  4.53044649505261E+02
(PID.TID 0000.0001)      cg2d_init_res =   3.27147245419624E-06
(PID.TID 0000.0001)      cg2d_iters(min,last) =      -1      75
(PID.TID 0000.0001)      cg2d_last_res =   7.75514508646399E-12
(PID.TID 0000.0001) // =======================================================
(PID.TID 0000.0001) // Begin MONITOR dynamic field statistics
(PID.TID 0000.0001) // =======================================================
(PID.TID 0000.0001) %MON time_tsnumber                =                  1117
(PID.TID 0000.0001) %MON time_secondsf                =   1.1170000000000E+05
(PID.TID 0000.0001) %MON dynstat_eta_max              =   5.7985593066430E+00
(PID.TID 0000.0001) %MON dynstat_eta_min              =  -1.4171741801642E+01
(PID.TID 0000.0001) %MON dynstat_eta_mean             =  -2.5245678469310E+00
(PID.TID 0000.0001) %MON dynstat_eta_sd               =   4.9412195323493E+00
(PID.TID 0000.0001) %MON dynstat_eta_del2             =   1.9058621188182E-01
(PID.TID 0000.0001) %MON dynstat_uvel_max             =   5.9671408921860E-03
(PID.TID 0000.0001) %MON dynstat_uvel_min             =  -2.8078927570262E-02
(PID.TID 0000.0001) %MON dynstat_uvel_mean            =   1.7724674409438E-09
(PID.TID 0000.0001) %MON dynstat_uvel_sd              =   7.6119191997005E-04
(PID.TID 0000.0001) %MON dynstat_uvel_del2            =   1.1668423322703E-06
(PID.TID 0000.0001) %MON dynstat_vvel_max             =   1.9916582032220E-02
(PID.TID 0000.0001) %MON dynstat_vvel_min             =  -7.3494633885289E-03
(PID.TID 0000.0001) %MON dynstat_vvel_mean            =   8.5150556137593E-08
(PID.TID 0000.0001) %MON dynstat_vvel_sd              =   3.7684146616948E-04
(PID.TID 0000.0001) %MON dynstat_vvel_del2            =   9.9532025667163E-07
(PID.TID 0000.0001) %MON dynstat_wvel_max             =   1.1372863359419E-03
(PID.TID 0000.0001) %MON dynstat_wvel_min             =  -1.3311691934022E-03
(PID.TID 0000.0001) %MON dynstat_wvel_mean            =   1.4427880222346E-10
(PID.TID 0000.0001) %MON dynstat_wvel_sd              =   1.8668003281303E-05
(PID.TID 0000.0001) %MON dynstat_wvel_del2            =   7.7916619493207E-08
(PID.TID 0000.0001) %MON dynstat_theta_max            =   1.2000000000000E+00
(PID.TID 0000.0001) %MON dynstat_theta_min            =  -1.0000000000000E+00
(PID.TID 0000.0001) %MON dynstat_theta_mean           =   5.6515733583812E-01
(PID.TID 0000.0001) %MON dynstat_theta_sd             =   8.4895149796232E-01
(PID.TID 0000.0001) %MON dynstat_theta_del2           =   2.7945827242642E-06
(PID.TID 0000.0001) %MON dynstat_salt_max             =   3.4700000000000E+01
(PID.TID 0000.0001) %MON dynstat_salt_min             =   3.4000000000000E+01
(PID.TID 0000.0001) %MON dynstat_salt_mean            =   3.4497976917488E+01
(PID.TID 0000.0001) %MON dynstat_salt_sd              =   2.7011719308112E-01
(PID.TID 0000.0001) %MON dynstat_salt_del2            =   1.1048529460348E-06
(PID.TID 0000.0001) %MON advcfl_uvel_max              =   2.8078927570262E-03
(PID.TID 0000.0001) %MON advcfl_vvel_max              =   1.9916582032220E-03
(PID.TID 0000.0001) %MON advcfl_wvel_max              =   6.6558459670111E-03
(PID.TID 0000.0001) %MON advcfl_W_hf_max              =   6.6558459670111E-03
(PID.TID 0000.0001) %MON pe_b_mean                    =  -6.8211140808531E-01
(PID.TID 0000.0001) %MON ke_max                       =   3.0199324203813E-04
(PID.TID 0000.0001) %MON ke_mean                      =   3.5526314714426E-07
(PID.TID 0000.0001) %MON ke_vol                       =   4.6183040327807E+12
(PID.TID 0000.0001) // =======================================================
(PID.TID 0000.0001) // End MONITOR dynamic field statistics
(PID.TID 0000.0001) // =======================================================
(PID.TID 0000.0001) // =======================================================
(PID.TID 0000.0001) // Begin OBCS MONITOR field statistics
(PID.TID 0000.0001) // =======================================================
(PID.TID 0000.0001) %MON obc_N_vVel_max               =   6.6240462852554E-08
(PID.TID 0000.0001) %MON obc_N_vVel_min               =   6.6240462852553E-08
(PID.TID 0000.0001) %MON obc_N_vVel_mean              =   6.6240462852553E-08
(PID.TID 0000.0001) %MON obc_N_vVel_sd                =  -7.8886090522101E-31
(PID.TID 0000.0001) %MON obc_N_vVel_Int               =   4.3718705482685E+00
(PID.TID 0000.0001) // =======================================================
(PID.TID 0000.0001) // End OBCS MONITOR field statistics
(PID.TID 0000.0001) // =======================================================
 cg2d: Sum(rhs),rhsMax =   3.00911525754317E+00  4.53044631004459E+02
(PID.TID 0000.0001)      cg2d_init_res =   3.28088460563380E-06
(PID.TID 0000.0001)      cg2d_iters(min,last) =      -1      75
(PID.TID 0000.0001)      cg2d_last_res =   7.77772103838131E-12
(PID.TID 0000.0001) // =======================================================
(PID.TID 0000.0001) // Begin MONITOR dynamic field statistics
(PID.TID 0000.0001) // =======================================================
(PID.TID 0000.0001) %MON time_tsnumber                =                  1118
(PID.TID 0000.0001) %MON time_secondsf                =   1.1180000000000E+05
(PID.TID 0000.0001) %MON dynstat_eta_max              =   5.7985619752290E+00
(PID.TID 0000.0001) %MON dynstat_eta_min              =  -1.4171729338905E+01
(PID.TID 0000.0001) %MON dynstat_eta_mean             =  -2.5245620583399E+00
(PID.TID 0000.0001) %MON dynstat_eta_sd               =   4.9412178485658E+00
(PID.TID 0000.0001) %MON dynstat_eta_del2             =   1.9058622904327E-01
(PID.TID 0000.0001) %MON dynstat_uvel_max             =   5.9819487466202E-03
(PID.TID 0000.0001) %MON dynstat_uvel_min             =  -2.8146508172014E-02
(PID.TID 0000.0001) %MON dynstat_uvel_mean            =   1.8233697954544E-09
(PID.TID 0000.0001) %MON dynstat_uvel_sd              =   7.6309314649671E-04
(PID.TID 0000.0001) %MON dynstat_uvel_del2            =   1.1696980454302E-06
(PID.TID 0000.0001) %MON dynstat_vvel_max             =   1.9955169802309E-02
(PID.TID 0000.0001) %MON dynstat_vvel_min             =  -7.3651912309005E-03
(PID.TID 0000.0001) %MON dynstat_vvel_mean            =   6.7131992326253E-08
(PID.TID 0000.0001) %MON dynstat_vvel_sd              =   3.7760722602311E-04
(PID.TID 0000.0001) %MON dynstat_vvel_del2            =   9.9748297800351E-07
(PID.TID 0000.0001) %MON dynstat_wvel_max             =   1.1399397495514E-03
(PID.TID 0000.0001) %MON dynstat_wvel_min             =  -1.3350378975119E-03
(PID.TID 0000.0001) %MON dynstat_wvel_mean            =   1.4460534518102E-10
(PID.TID 0000.0001) %MON dynstat_wvel_sd              =   1.8729668073880E-05
(PID.TID 0000.0001) %MON dynstat_wvel_del2            =   7.8206408743137E-08
(PID.TID 0000.0001) %MON dynstat_theta_max            =   1.2000000000000E+00
(PID.TID 0000.0001) %MON dynstat_theta_min            =  -1.0000000000000E+00
(PID.TID 0000.0001) %MON dynstat_theta_mean           =   5.6515668621330E-01
(PID.TID 0000.0001) %MON dynstat_theta_sd             =   8.4895121490746E-01
(PID.TID 0000.0001) %MON dynstat_theta_del2           =   2.8002978881372E-06
(PID.TID 0000.0001) %MON dynstat_salt_max             =   3.4700000000000E+01
(PID.TID 0000.0001) %MON dynstat_salt_min             =   3.4000000000000E+01
(PID.TID 0000.0001) %MON dynstat_salt_mean            =   3.4497976658147E+01
(PID.TID 0000.0001) %MON dynstat_salt_sd              =   2.7011708649883E-01
(PID.TID 0000.0001) %MON dynstat_salt_del2            =   1.1071326965931E-06
(PID.TID 0000.0001) %MON advcfl_uvel_max              =   2.8146508172014E-03
(PID.TID 0000.0001) %MON advcfl_vvel_max              =   1.9955169802309E-03
(PID.TID 0000.0001) %MON advcfl_wvel_max              =   6.6751894875593E-03
(PID.TID 0000.0001) %MON advcfl_W_hf_max              =   6.6751894875593E-03
(PID.TID 0000.0001) %MON pe_b_mean                    =  -6.8210968653073E-01
(PID.TID 0000.0001) %MON ke_max                       =   3.0367756757826E-04
(PID.TID 0000.0001) %MON ke_mean                      =   3.5697376713840E-07
(PID.TID 0000.0001) %MON ke_vol                       =   4.6183040669892E+12
(PID.TID 0000.0001) // =======================================================
(PID.TID 0000.0001) // End MONITOR dynamic field statistics
(PID.TID 0000.0001) // =======================================================
(PID.TID 0000.0001) // =======================================================
(PID.TID 0000.0001) // Begin OBCS MONITOR field statistics
(PID.TID 0000.0001) // =======================================================
(PID.TID 0000.0001) %MON obc_N_vVel_max               =   4.9053406481225E-08
(PID.TID 0000.0001) %MON obc_N_vVel_min               =   4.9053406481224E-08
(PID.TID 0000.0001) %MON obc_N_vVel_mean              =   4.9053406481225E-08
(PID.TID 0000.0001) %MON obc_N_vVel_sd                =  -1.1201824854138E-28
(PID.TID 0000.0001) %MON obc_N_vVel_Int               =   3.2375248277609E+00
(PID.TID 0000.0001) // =======================================================
(PID.TID 0000.0001) // End OBCS MONITOR field statistics
(PID.TID 0000.0001) // =======================================================
 cg2d: Sum(rhs),rhsMax =   3.00910844859721E+00  4.53044611904803E+02
(PID.TID 0000.0001)      cg2d_init_res =   3.29041323461342E-06
(PID.TID 0000.0001)      cg2d_iters(min,last) =      -1      75
(PID.TID 0000.0001)      cg2d_last_res =   7.80050244455567E-12
(PID.TID 0000.0001) // =======================================================
(PID.TID 0000.0001) // Begin MONITOR dynamic field statistics
(PID.TID 0000.0001) // =======================================================
(PID.TID 0000.0001) %MON time_tsnumber                =                  1119
(PID.TID 0000.0001) %MON time_secondsf                =   1.1190000000000E+05
(PID.TID 0000.0001) %MON dynstat_eta_max              =   5.7985646778669E+00
(PID.TID 0000.0001) %MON dynstat_eta_min              =  -1.4171716817921E+01
(PID.TID 0000.0001) %MON dynstat_eta_mean             =  -2.5245562393966E+00
(PID.TID 0000.0001) %MON dynstat_eta_sd               =   4.9412161544745E+00
(PID.TID 0000.0001) %MON dynstat_eta_del2             =   1.9058624620707E-01
(PID.TID 0000.0001) %MON dynstat_uvel_max             =   5.9967894422188E-03
(PID.TID 0000.0001) %MON dynstat_uvel_min             =  -2.8214168201936E-02
(PID.TID 0000.0001) %MON dynstat_uvel_mean            =   1.8650933602768E-09
(PID.TID 0000.0001) %MON dynstat_uvel_sd              =   7.6499822797127E-04
(PID.TID 0000.0001) %MON dynstat_uvel_del2            =   1.1725605292392E-06
(PID.TID 0000.0001) %MON dynstat_vvel_max             =   1.9993784542750E-02
(PID.TID 0000.0001) %MON dynstat_vvel_min             =  -7.3809419483322E-03
(PID.TID 0000.0001) %MON dynstat_vvel_mean            =   4.8563256103991E-08
(PID.TID 0000.0001) %MON dynstat_vvel_sd              =   3.7837524321123E-04
(PID.TID 0000.0001) %MON dynstat_vvel_del2            =   9.9965428281696E-07
(PID.TID 0000.0001) %MON dynstat_wvel_max             =   1.1425968931708E-03
(PID.TID 0000.0001) %MON dynstat_wvel_min             =  -1.3389141376601E-03
(PID.TID 0000.0001) %MON dynstat_wvel_mean            =   1.4677808405266E-10
(PID.TID 0000.0001) %MON dynstat_wvel_sd              =   1.8794779497887E-05
(PID.TID 0000.0001) %MON dynstat_wvel_del2            =   7.8514699774948E-08
(PID.TID 0000.0001) %MON dynstat_theta_max            =   1.2000000000000E+00
(PID.TID 0000.0001) %MON dynstat_theta_min            =  -1.0000000000000E+00
(PID.TID 0000.0001) %MON dynstat_theta_mean           =   5.6515603542555E-01
(PID.TID 0000.0001) %MON dynstat_theta_sd             =   8.4895093124819E-01
(PID.TID 0000.0001) %MON dynstat_theta_del2           =   2.8060171889876E-06
(PID.TID 0000.0001) %MON dynstat_salt_max             =   3.4700000000000E+01
(PID.TID 0000.0001) %MON dynstat_salt_min             =   3.4000000000000E+01
(PID.TID 0000.0001) %MON dynstat_salt_mean            =   3.4497976398339E+01
(PID.TID 0000.0001) %MON dynstat_salt_sd              =   2.7011697968459E-01
(PID.TID 0000.0001) %MON dynstat_salt_del2            =   1.1094150622121E-06
(PID.TID 0000.0001) %MON advcfl_uvel_max              =   2.8214168201936E-03
(PID.TID 0000.0001) %MON advcfl_vvel_max              =   1.9993784542750E-03
(PID.TID 0000.0001) %MON advcfl_wvel_max              =   6.6945706883006E-03
(PID.TID 0000.0001) %MON advcfl_W_hf_max              =   6.6945706883006E-03
(PID.TID 0000.0001) %MON pe_b_mean                    =  -6.8210795769675E-01
(PID.TID 0000.0001) %MON ke_max                       =   3.0536987160143E-04
(PID.TID 0000.0001) %MON ke_mean                      =   3.5869226818732E-07
(PID.TID 0000.0001) %MON ke_vol                       =   4.6183041013735E+12
(PID.TID 0000.0001) // =======================================================
(PID.TID 0000.0001) // End MONITOR dynamic field statistics
(PID.TID 0000.0001) // =======================================================
(PID.TID 0000.0001) // =======================================================
(PID.TID 0000.0001) // Begin OBCS MONITOR field statistics
(PID.TID 0000.0001) // =======================================================
(PID.TID 0000.0001) %MON obc_N_vVel_max               =   3.1181730814544E-08
(PID.TID 0000.0001) %MON obc_N_vVel_min               =   3.1181730814544E-08
(PID.TID 0000.0001) %MON obc_N_vVel_mean              =   3.1181730814544E-08
(PID.TID 0000.0001) %MON obc_N_vVel_sd                =  -6.7644822622702E-29
(PID.TID 0000.0001) %MON obc_N_vVel_Int               =   2.0579942337599E+00
(PID.TID 0000.0001) // =======================================================
(PID.TID 0000.0001) // End OBCS MONITOR field statistics
(PID.TID 0000.0001) // =======================================================
 cg2d: Sum(rhs),rhsMax =   3.00910160628436E+00  4.53044592288707E+02
(PID.TID 0000.0001)      cg2d_init_res =   3.29997222012643E-06
(PID.TID 0000.0001)      cg2d_iters(min,last) =      -1      75
(PID.TID 0000.0001)      cg2d_last_res =   7.82342510264414E-12
(PID.TID 0000.0001) // =======================================================
(PID.TID 0000.0001) // Begin MONITOR dynamic field statistics
(PID.TID 0000.0001) // =======================================================
(PID.TID 0000.0001) %MON time_tsnumber                =                  1120
(PID.TID 0000.0001) %MON time_secondsf                =   1.1200000000000E+05
(PID.TID 0000.0001) %MON dynstat_eta_max              =   5.7985674150225E+00
(PID.TID 0000.0001) %MON dynstat_eta_min              =  -1.4171704238176E+01
(PID.TID 0000.0001) %MON dynstat_eta_mean             =  -2.5245503895822E+00
(PID.TID 0000.0001) %MON dynstat_eta_sd               =   4.9412144501287E+00
(PID.TID 0000.0001) %MON dynstat_eta_del2             =   1.9058626337417E-01
(PID.TID 0000.0001) %MON dynstat_uvel_max             =   6.0116630118570E-03
(PID.TID 0000.0001) %MON dynstat_uvel_min             =  -2.8281907420704E-02
(PID.TID 0000.0001) %MON dynstat_uvel_mean            =   1.8972829023703E-09
(PID.TID 0000.0001) %MON dynstat_uvel_sd              =   7.6690717246981E-04
(PID.TID 0000.0001) %MON dynstat_uvel_del2            =   1.1754298097757E-06
(PID.TID 0000.0001) %MON dynstat_vvel_max             =   2.0032426181559E-02
(PID.TID 0000.0001) %MON dynstat_vvel_min             =  -7.3967154882952E-03
(PID.TID 0000.0001) %MON dynstat_vvel_mean            =   2.9683205064289E-08
(PID.TID 0000.0001) %MON dynstat_vvel_sd              =   3.7914516149972E-04
(PID.TID 0000.0001) %MON dynstat_vvel_del2            =   1.0018312322166E-06
(PID.TID 0000.0001) %MON dynstat_wvel_max             =   1.1452577636780E-03
(PID.TID 0000.0001) %MON dynstat_wvel_min             =  -1.3427979064240E-03
(PID.TID 0000.0001) %MON dynstat_wvel_mean            =   1.5078044996821E-10
(PID.TID 0000.0001) %MON dynstat_wvel_sd              =   1.8861968969317E-05
(PID.TID 0000.0001) %MON dynstat_wvel_del2            =   7.8833274935979E-08
(PID.TID 0000.0001) %MON dynstat_theta_max            =   1.2000000000000E+00
(PID.TID 0000.0001) %MON dynstat_theta_min            =  -1.0000000000000E+00
(PID.TID 0000.0001) %MON dynstat_theta_mean           =   5.6515538347370E-01
(PID.TID 0000.0001) %MON dynstat_theta_sd             =   8.4895064698111E-01
(PID.TID 0000.0001) %MON dynstat_theta_del2           =   2.8117443229675E-06
(PID.TID 0000.0001) %MON dynstat_salt_max             =   3.4700000000000E+01
(PID.TID 0000.0001) %MON dynstat_salt_min             =   3.4000000000000E+01
(PID.TID 0000.0001) %MON dynstat_salt_mean            =   3.4497976138066E+01
(PID.TID 0000.0001) %MON dynstat_salt_sd              =   2.7011687263751E-01
(PID.TID 0000.0001) %MON dynstat_salt_del2            =   1.1117009801022E-06
(PID.TID 0000.0001) %MON advcfl_uvel_max              =   2.8281907420704E-03
(PID.TID 0000.0001) %MON advcfl_vvel_max              =   2.0032426181559E-03
(PID.TID 0000.0001) %MON advcfl_wvel_max              =   6.7139895321198E-03
(PID.TID 0000.0001) %MON advcfl_W_hf_max              =   6.7139895321198E-03
(PID.TID 0000.0001) %MON pe_b_mean                    =  -6.8210622152752E-01
(PID.TID 0000.0001) %MON ke_max                       =   3.0707018296732E-04
(PID.TID 0000.0001) %MON ke_mean                      =   3.6041854816424E-07
(PID.TID 0000.0001) %MON ke_vol                       =   4.6183041359380E+12
(PID.TID 0000.0001) // =======================================================
(PID.TID 0000.0001) // End MONITOR dynamic field statistics
(PID.TID 0000.0001) // =======================================================
(PID.TID 0000.0001) // =======================================================
(PID.TID 0000.0001) // Begin OBCS MONITOR field statistics
(PID.TID 0000.0001) // =======================================================
(PID.TID 0000.0001) %MON obc_N_vVel_max               =   1.2854099380505E-08
(PID.TID 0000.0001) %MON obc_N_vVel_min               =   1.2854099380505E-08
(PID.TID 0000.0001) %MON obc_N_vVel_mean              =   1.2854099380505E-08
(PID.TID 0000.0001) %MON obc_N_vVel_sd                =   1.5857156540162E-15
(PID.TID 0000.0001) %MON obc_N_vVel_Int               =   8.4837055911332E-01
(PID.TID 0000.0001) // =======================================================
(PID.TID 0000.0001) // End OBCS MONITOR field statistics
(PID.TID 0000.0001) // =======================================================
 cg2d: Sum(rhs),rhsMax =   3.00909472970961E+00  4.53044572244614E+02
(PID.TID 0000.0001)      cg2d_init_res =   3.30946836493071E-06
(PID.TID 0000.0001)      cg2d_iters(min,last) =      -1      75
(PID.TID 0000.0001)      cg2d_last_res =   7.84642067457834E-12
(PID.TID 0000.0001) // =======================================================
(PID.TID 0000.0001) // Begin MONITOR dynamic field statistics
(PID.TID 0000.0001) // =======================================================
(PID.TID 0000.0001) %MON time_tsnumber                =                  1121
(PID.TID 0000.0001) %MON time_secondsf                =   1.1210000000000E+05
(PID.TID 0000.0001) %MON dynstat_eta_max              =   5.7985701867337E+00
(PID.TID 0000.0001) %MON dynstat_eta_min              =  -1.4171691599643E+01
(PID.TID 0000.0001) %MON dynstat_eta_mean             =  -2.5245445086385E+00
(PID.TID 0000.0001) %MON dynstat_eta_sd               =   4.9412127356744E+00
(PID.TID 0000.0001) %MON dynstat_eta_del2             =   1.9058628054591E-01
(PID.TID 0000.0001) %MON dynstat_uvel_max             =   6.0265694879824E-03
(PID.TID 0000.0001) %MON dynstat_uvel_min             =  -2.8349725587105E-02
(PID.TID 0000.0001) %MON dynstat_uvel_mean            =   1.9197064265391E-09
(PID.TID 0000.0001) %MON dynstat_uvel_sd              =   7.6881998814551E-04
(PID.TID 0000.0001) %MON dynstat_uvel_del2            =   1.1783059145618E-06
(PID.TID 0000.0001) %MON dynstat_vvel_max             =   2.0071094647454E-02
(PID.TID 0000.0001) %MON dynstat_vvel_min             =  -7.4125117974111E-03
(PID.TID 0000.0001) %MON dynstat_vvel_mean            =   1.0735307520494E-08
(PID.TID 0000.0001) %MON dynstat_vvel_sd              =   3.7991660536175E-04
(PID.TID 0000.0001) %MON dynstat_vvel_del2            =   1.0040108621178E-06
(PID.TID 0000.0001) %MON dynstat_wvel_max             =   1.1479223579100E-03
(PID.TID 0000.0001) %MON dynstat_wvel_min             =  -1.3466891962467E-03
(PID.TID 0000.0001) %MON dynstat_wvel_mean            =   1.5657289759219E-10
(PID.TID 0000.0001) %MON dynstat_wvel_sd              =   1.8929804949852E-05
(PID.TID 0000.0001) %MON dynstat_wvel_del2            =   7.9153698724956E-08
(PID.TID 0000.0001) %MON dynstat_theta_max            =   1.2000000000000E+00
(PID.TID 0000.0001) %MON dynstat_theta_min            =  -1.0000000000000E+00
(PID.TID 0000.0001) %MON dynstat_theta_mean           =   5.6515473035659E-01
(PID.TID 0000.0001) %MON dynstat_theta_sd             =   8.4895036210532E-01
(PID.TID 0000.0001) %MON dynstat_theta_del2           =   2.8174830316642E-06
(PID.TID 0000.0001) %MON dynstat_salt_max             =   3.4700000000000E+01
(PID.TID 0000.0001) %MON dynstat_salt_min             =   3.4000000000000E+01
(PID.TID 0000.0001) %MON dynstat_salt_mean            =   3.4497975877327E+01
(PID.TID 0000.0001) %MON dynstat_salt_sd              =   2.7011676535723E-01
(PID.TID 0000.0001) %MON dynstat_salt_del2            =   1.1139913972896E-06
(PID.TID 0000.0001) %MON advcfl_uvel_max              =   2.8349725587105E-03
(PID.TID 0000.0001) %MON advcfl_vvel_max              =   2.0071094647454E-03
(PID.TID 0000.0001) %MON advcfl_wvel_max              =   6.7334459812334E-03
(PID.TID 0000.0001) %MON advcfl_W_hf_max              =   6.7334459812334E-03
(PID.TID 0000.0001) %MON pe_b_mean                    =  -6.8210447801980E-01
(PID.TID 0000.0001) %MON ke_max                       =   3.0877853061745E-04
(PID.TID 0000.0001) %MON ke_mean                      =   3.6215249667341E-07
(PID.TID 0000.0001) %MON ke_vol                       =   4.6183041706859E+12
(PID.TID 0000.0001) // =======================================================
(PID.TID 0000.0001) // End MONITOR dynamic field statistics
(PID.TID 0000.0001) // =======================================================
(PID.TID 0000.0001) // =======================================================
(PID.TID 0000.0001) // Begin OBCS MONITOR field statistics
(PID.TID 0000.0001) // =======================================================
(PID.TID 0000.0001) %MON obc_N_vVel_max               =  -5.6944297518808E-09
(PID.TID 0000.0001) %MON obc_N_vVel_min               =  -5.6944297518808E-09
(PID.TID 0000.0001) %MON obc_N_vVel_mean              =  -5.6944297518808E-09
(PID.TID 0000.0001) %MON obc_N_vVel_sd                =   7.5298989078712E-16
(PID.TID 0000.0001) %MON obc_N_vVel_Int               =  -3.7583236362413E-01
(PID.TID 0000.0001) // =======================================================
(PID.TID 0000.0001) // End OBCS MONITOR field statistics
(PID.TID 0000.0001) // =======================================================
 cg2d: Sum(rhs),rhsMax =   3.00908781825954E+00  4.53044551866101E+02
(PID.TID 0000.0001)      cg2d_init_res =   3.31880913253733E-06
(PID.TID 0000.0001)      cg2d_iters(min,last) =      -1      75
(PID.TID 0000.0001)      cg2d_last_res =   7.86941469741530E-12
(PID.TID 0000.0001) // =======================================================
(PID.TID 0000.0001) // Begin MONITOR dynamic field statistics
(PID.TID 0000.0001) // =======================================================
(PID.TID 0000.0001) %MON time_tsnumber                =                  1122
(PID.TID 0000.0001) %MON time_secondsf                =   1.1220000000000E+05
(PID.TID 0000.0001) %MON dynstat_eta_max              =   5.7985729925879E+00
(PID.TID 0000.0001) %MON dynstat_eta_min              =  -1.4171678902765E+01
(PID.TID 0000.0001) %MON dynstat_eta_mean             =  -2.5245385965725E+00
(PID.TID 0000.0001) %MON dynstat_eta_sd               =   4.9412110113492E+00
(PID.TID 0000.0001) %MON dynstat_eta_del2             =   1.9058629772396E-01
(PID.TID 0000.0001) %MON dynstat_uvel_max             =   6.0415089028103E-03
(PID.TID 0000.0001) %MON dynstat_uvel_min             =  -2.8417622458008E-02
(PID.TID 0000.0001) %MON dynstat_uvel_mean            =   1.9322578164694E-09
(PID.TID 0000.0001) %MON dynstat_uvel_sd              =   7.7073668318780E-04
(PID.TID 0000.0001) %MON dynstat_uvel_del2            =   1.1811888719903E-06
(PID.TID 0000.0001) %MON dynstat_vvel_max             =   2.0109789869552E-02
(PID.TID 0000.0001) %MON dynstat_vvel_min             =  -7.4283308217176E-03
(PID.TID 0000.0001) %MON dynstat_vvel_mean            =  -8.0355129031945E-09
(PID.TID 0000.0001) %MON dynstat_vvel_sd              =   3.8068919964625E-04
(PID.TID 0000.0001) %MON dynstat_vvel_del2            =   1.0061903309992E-06
(PID.TID 0000.0001) %MON dynstat_wvel_max             =   1.1505906726872E-03
(PID.TID 0000.0001) %MON dynstat_wvel_min             =  -1.3505879994247E-03
(PID.TID 0000.0001) %MON dynstat_wvel_mean            =   1.6409197975812E-10
(PID.TID 0000.0001) %MON dynstat_wvel_sd              =   1.8996868790695E-05
(PID.TID 0000.0001) %MON dynstat_wvel_del2            =   7.9467752111049E-08
(PID.TID 0000.0001) %MON dynstat_theta_max            =   1.2000000000000E+00
(PID.TID 0000.0001) %MON dynstat_theta_min            =  -1.0000000000000E+00
(PID.TID 0000.0001) %MON dynstat_theta_mean           =   5.6515407607311E-01
(PID.TID 0000.0001) %MON dynstat_theta_sd             =   8.4895007662041E-01
(PID.TID 0000.0001) %MON dynstat_theta_del2           =   2.8232369362863E-06
(PID.TID 0000.0001) %MON dynstat_salt_max             =   3.4700000000000E+01
(PID.TID 0000.0001) %MON dynstat_salt_min             =   3.4000000000000E+01
(PID.TID 0000.0001) %MON dynstat_salt_mean            =   3.4497975616120E+01
(PID.TID 0000.0001) %MON dynstat_salt_sd              =   2.7011665784360E-01
(PID.TID 0000.0001) %MON dynstat_salt_del2            =   1.1162872249793E-06
(PID.TID 0000.0001) %MON advcfl_uvel_max              =   2.8417622458008E-03
(PID.TID 0000.0001) %MON advcfl_vvel_max              =   2.0109789869552E-03
(PID.TID 0000.0001) %MON advcfl_wvel_max              =   6.7529399971233E-03
(PID.TID 0000.0001) %MON advcfl_W_hf_max              =   6.7529399971233E-03
(PID.TID 0000.0001) %MON pe_b_mean                    =  -6.8210272722302E-01
(PID.TID 0000.0001) %MON ke_max                       =   3.1049494356795E-04
(PID.TID 0000.0001) %MON ke_mean                      =   3.6389400242608E-07
(PID.TID 0000.0001) %MON ke_vol                       =   4.6183042056187E+12
(PID.TID 0000.0001) // =======================================================
(PID.TID 0000.0001) // End MONITOR dynamic field statistics
(PID.TID 0000.0001) // =======================================================
(PID.TID 0000.0001) // =======================================================
(PID.TID 0000.0001) // Begin OBCS MONITOR field statistics
(PID.TID 0000.0001) // =======================================================
(PID.TID 0000.0001) %MON obc_N_vVel_max               =  -2.4225346449371E-08
(PID.TID 0000.0001) %MON obc_N_vVel_min               =  -2.4225346449372E-08
(PID.TID 0000.0001) %MON obc_N_vVel_mean              =  -2.4225346449371E-08
(PID.TID 0000.0001) %MON obc_N_vVel_sd                =   8.0366651426428E-15
(PID.TID 0000.0001) %MON obc_N_vVel_Int               =  -1.5988728656585E+00
(PID.TID 0000.0001) // =======================================================
(PID.TID 0000.0001) // End OBCS MONITOR field statistics
(PID.TID 0000.0001) // =======================================================
 cg2d: Sum(rhs),rhsMax =   3.00908087161057E+00  4.53044531250459E+02
(PID.TID 0000.0001)      cg2d_init_res =   3.32790486477855E-06
(PID.TID 0000.0001)      cg2d_iters(min,last) =      -1      75
(PID.TID 0000.0001)      cg2d_last_res =   7.89232294017231E-12
(PID.TID 0000.0001) // =======================================================
(PID.TID 0000.0001) // Begin MONITOR dynamic field statistics
(PID.TID 0000.0001) // =======================================================
(PID.TID 0000.0001) %MON time_tsnumber                =                  1123
(PID.TID 0000.0001) %MON time_secondsf                =   1.1230000000000E+05
(PID.TID 0000.0001) %MON dynstat_eta_max              =   5.7985758317489E+00
(PID.TID 0000.0001) %MON dynstat_eta_min              =  -1.4171666148472E+01
(PID.TID 0000.0001) %MON dynstat_eta_mean             =  -2.5245326536547E+00
(PID.TID 0000.0001) %MON dynstat_eta_sd               =   4.9412092774782E+00
(PID.TID 0000.0001) %MON dynstat_eta_del2             =   1.9058631491030E-01
(PID.TID 0000.0001) %MON dynstat_uvel_max             =   6.0564812882165E-03
(PID.TID 0000.0001) %MON dynstat_uvel_min             =  -2.8485597788015E-02
(PID.TID 0000.0001) %MON dynstat_uvel_mean            =   1.9349635648502E-09
(PID.TID 0000.0001) %MON dynstat_uvel_sd              =   7.7265726578120E-04
(PID.TID 0000.0001) %MON dynstat_uvel_del2            =   1.1840787107519E-06
(PID.TID 0000.0001) %MON dynstat_vvel_max             =   2.0148511776858E-02
(PID.TID 0000.0001) %MON dynstat_vvel_min             =  -7.4441725070535E-03
(PID.TID 0000.0001) %MON dynstat_vvel_mean            =  -2.6386078929562E-08
(PID.TID 0000.0001) %MON dynstat_vvel_sd              =   3.8146258883071E-04
(PID.TID 0000.0001) %MON dynstat_vvel_del2            =   1.0083670566096E-06
(PID.TID 0000.0001) %MON dynstat_wvel_max             =   1.1532627048059E-03
(PID.TID 0000.0001) %MON dynstat_wvel_min             =  -1.3544943081233E-03
(PID.TID 0000.0001) %MON dynstat_wvel_mean            =   1.7325199324586E-10
(PID.TID 0000.0001) %MON dynstat_wvel_sd              =   1.9061826176505E-05
(PID.TID 0000.0001) %MON dynstat_wvel_del2            =   7.9767820946653E-08
(PID.TID 0000.0001) %MON dynstat_theta_max            =   1.2000000000000E+00
(PID.TID 0000.0001) %MON dynstat_theta_min            =  -1.0000000000000E+00
(PID.TID 0000.0001) %MON dynstat_theta_mean           =   5.6515342062201E-01
(PID.TID 0000.0001) %MON dynstat_theta_sd             =   8.4894979052677E-01
(PID.TID 0000.0001) %MON dynstat_theta_del2           =   2.8290093513647E-06
(PID.TID 0000.0001) %MON dynstat_salt_max             =   3.4700000000000E+01
(PID.TID 0000.0001) %MON dynstat_salt_min             =   3.4000000000000E+01
(PID.TID 0000.0001) %MON dynstat_salt_mean            =   3.4497975354445E+01
(PID.TID 0000.0001) %MON dynstat_salt_sd              =   2.7011655009651E-01
(PID.TID 0000.0001) %MON dynstat_salt_del2            =   1.1185892921887E-06
(PID.TID 0000.0001) %MON advcfl_uvel_max              =   2.8485597788015E-03
(PID.TID 0000.0001) %MON advcfl_vvel_max              =   2.0148511776858E-03
(PID.TID 0000.0001) %MON advcfl_wvel_max              =   6.7724715406165E-03
(PID.TID 0000.0001) %MON advcfl_W_hf_max              =   6.7724715406165E-03
(PID.TID 0000.0001) %MON pe_b_mean                    =  -6.8210096923851E-01
(PID.TID 0000.0001) %MON ke_max                       =   3.1221945090988E-04
(PID.TID 0000.0001) %MON ke_mean                      =   3.6564296055052E-07
(PID.TID 0000.0001) %MON ke_vol                       =   4.6183042407364E+12
(PID.TID 0000.0001) // =======================================================
(PID.TID 0000.0001) // End MONITOR dynamic field statistics
(PID.TID 0000.0001) // =======================================================
(PID.TID 0000.0001) // =======================================================
(PID.TID 0000.0001) // Begin OBCS MONITOR field statistics
(PID.TID 0000.0001) // =======================================================
(PID.TID 0000.0001) %MON obc_N_vVel_max               =  -4.2499896306599E-08
(PID.TID 0000.0001) %MON obc_N_vVel_min               =  -4.2499896306600E-08
(PID.TID 0000.0001) %MON obc_N_vVel_mean              =  -4.2499896306600E-08
(PID.TID 0000.0001) %MON obc_N_vVel_sd                =   6.7641653219609E-15
(PID.TID 0000.0001) %MON obc_N_vVel_Int               =  -2.8049931562356E+00
(PID.TID 0000.0001) // =======================================================
(PID.TID 0000.0001) // End OBCS MONITOR field statistics
(PID.TID 0000.0001) // =======================================================
 cg2d: Sum(rhs),rhsMax =   3.00907388973449E+00  4.53044510497654E+02
(PID.TID 0000.0001)      cg2d_init_res =   3.33667597397970E-06
(PID.TID 0000.0001)      cg2d_iters(min,last) =      -1      75
(PID.TID 0000.0001)      cg2d_last_res =   7.91508950495512E-12
(PID.TID 0000.0001) // =======================================================
(PID.TID 0000.0001) // Begin MONITOR dynamic field statistics
(PID.TID 0000.0001) // =======================================================
(PID.TID 0000.0001) %MON time_tsnumber                =                  1124
(PID.TID 0000.0001) %MON time_secondsf                =   1.1240000000000E+05
(PID.TID 0000.0001) %MON dynstat_eta_max              =   5.7985787029450E+00
(PID.TID 0000.0001) %MON dynstat_eta_min              =  -1.4171653338157E+01
(PID.TID 0000.0001) %MON dynstat_eta_mean             =  -2.5245266804186E+00
(PID.TID 0000.0001) %MON dynstat_eta_sd               =   4.9412075344715E+00
(PID.TID 0000.0001) %MON dynstat_eta_del2             =   1.9058633210724E-01
(PID.TID 0000.0001) %MON dynstat_uvel_max             =   6.0714866758786E-03
(PID.TID 0000.0001) %MON dynstat_uvel_min             =  -2.8553651329603E-02
(PID.TID 0000.0001) %MON dynstat_uvel_mean            =   1.9279821409621E-09
(PID.TID 0000.0001) %MON dynstat_uvel_sd              =   7.7458174406842E-04
(PID.TID 0000.0001) %MON dynstat_uvel_del2            =   1.1869754592855E-06
(PID.TID 0000.0001) %MON dynstat_vvel_max             =   2.0187260297925E-02
(PID.TID 0000.0001) %MON dynstat_vvel_min             =  -7.4600367992677E-03
(PID.TID 0000.0001) %MON dynstat_vvel_mean            =  -4.4078160731946E-08
(PID.TID 0000.0001) %MON dynstat_vvel_sd              =   3.8223645487489E-04
(PID.TID 0000.0001) %MON dynstat_vvel_del2            =   1.0105388351865E-06
(PID.TID 0000.0001) %MON dynstat_wvel_max             =   1.1559384510478E-03
(PID.TID 0000.0001) %MON dynstat_wvel_min             =  -1.3584081142580E-03
(PID.TID 0000.0001) %MON dynstat_wvel_mean            =   1.8394562311349E-10
(PID.TID 0000.0001) %MON dynstat_wvel_sd              =   1.9123490795668E-05
(PID.TID 0000.0001) %MON dynstat_wvel_del2            =   8.0047222956336E-08
(PID.TID 0000.0001) %MON dynstat_theta_max            =   1.2000000000000E+00
(PID.TID 0000.0001) %MON dynstat_theta_min            =  -1.0000000000000E+00
(PID.TID 0000.0001) %MON dynstat_theta_mean           =   5.6515276400213E-01
(PID.TID 0000.0001) %MON dynstat_theta_sd             =   8.4894950382521E-01
(PID.TID 0000.0001) %MON dynstat_theta_del2           =   2.8348031323581E-06
(PID.TID 0000.0001) %MON dynstat_salt_max             =   3.4700000000000E+01
(PID.TID 0000.0001) %MON dynstat_salt_min             =   3.4000000000000E+01
(PID.TID 0000.0001) %MON dynstat_salt_mean            =   3.4497975092303E+01
(PID.TID 0000.0001) %MON dynstat_salt_sd              =   2.7011644211627E-01
(PID.TID 0000.0001) %MON dynstat_salt_del2            =   1.1208983075647E-06
(PID.TID 0000.0001) %MON advcfl_uvel_max              =   2.8553651329603E-03
(PID.TID 0000.0001) %MON advcfl_vvel_max              =   2.0187260297925E-03
(PID.TID 0000.0001) %MON advcfl_wvel_max              =   6.7920405712901E-03
(PID.TID 0000.0001) %MON advcfl_W_hf_max              =   6.7920405712901E-03
(PID.TID 0000.0001) %MON pe_b_mean                    =  -6.8209920421863E-01
(PID.TID 0000.0001) %MON ke_max                       =   3.1395208180759E-04
(PID.TID 0000.0001) %MON ke_mean                      =   3.6739927946168E-07
(PID.TID 0000.0001) %MON ke_vol                       =   4.6183042760373E+12
(PID.TID 0000.0001) // =======================================================
(PID.TID 0000.0001) // End MONITOR dynamic field statistics
(PID.TID 0000.0001) // =======================================================
(PID.TID 0000.0001) // =======================================================
(PID.TID 0000.0001) // Begin OBCS MONITOR field statistics
(PID.TID 0000.0001) // =======================================================
(PID.TID 0000.0001) %MON obc_N_vVel_max               =  -6.0282169095351E-08
(PID.TID 0000.0001) %MON obc_N_vVel_min               =  -6.0282169095353E-08
(PID.TID 0000.0001) %MON obc_N_vVel_mean              =  -6.0282169095351E-08
(PID.TID 0000.0001) %MON obc_N_vVel_sd                =   1.0695084443661E-14
(PID.TID 0000.0001) %MON obc_N_vVel_Int               =  -3.9786231602932E+00
(PID.TID 0000.0001) // =======================================================
(PID.TID 0000.0001) // End OBCS MONITOR field statistics
(PID.TID 0000.0001) // =======================================================
 cg2d: Sum(rhs),rhsMax =   3.00906687289874E+00  4.53044489709010E+02
(PID.TID 0000.0001)      cg2d_init_res =   3.34505237204253E-06
(PID.TID 0000.0001)      cg2d_iters(min,last) =      -1      75
(PID.TID 0000.0001)      cg2d_last_res =   7.93764983656347E-12
(PID.TID 0000.0001) // =======================================================
(PID.TID 0000.0001) // Begin MONITOR dynamic field statistics
(PID.TID 0000.0001) // =======================================================
(PID.TID 0000.0001) %MON time_tsnumber                =                  1125
(PID.TID 0000.0001) %MON time_secondsf                =   1.1250000000000E+05
(PID.TID 0000.0001) %MON dynstat_eta_max              =   5.7985816045001E+00
(PID.TID 0000.0001) %MON dynstat_eta_min              =  -1.4171640473669E+01
(PID.TID 0000.0001) %MON dynstat_eta_mean             =  -2.5245206776531E+00
(PID.TID 0000.0001) %MON dynstat_eta_sd               =   4.9412057828186E+00
(PID.TID 0000.0001) %MON dynstat_eta_del2             =   1.9058634931736E-01
(PID.TID 0000.0001) %MON dynstat_uvel_max             =   6.0865250972615E-03
(PID.TID 0000.0001) %MON dynstat_uvel_min             =  -2.8621782832880E-02
(PID.TID 0000.0001) %MON dynstat_uvel_mean            =   1.9116003627931E-09
(PID.TID 0000.0001) %MON dynstat_uvel_sd              =   7.7651012611801E-04
(PID.TID 0000.0001) %MON dynstat_uvel_del2            =   1.1898791452724E-06
(PID.TID 0000.0001) %MON dynstat_vvel_max             =   2.0226035360526E-02
(PID.TID 0000.0001) %MON dynstat_vvel_min             =  -7.4759236445416E-03
(PID.TID 0000.0001) %MON dynstat_vvel_mean            =  -6.0881630646770E-08
(PID.TID 0000.0001) %MON dynstat_vvel_sd              =   3.8301053281080E-04
(PID.TID 0000.0001) %MON dynstat_vvel_del2            =   1.0127039381350E-06
(PID.TID 0000.0001) %MON dynstat_wvel_max             =   1.1586179081808E-03
(PID.TID 0000.0001) %MON dynstat_wvel_min             =  -1.3623294095482E-03
(PID.TID 0000.0001) %MON dynstat_wvel_mean            =   1.9604527488452E-10
(PID.TID 0000.0001) %MON dynstat_wvel_sd              =   1.9180877689477E-05
(PID.TID 0000.0001) %MON dynstat_wvel_del2            =   8.0300464780901E-08
(PID.TID 0000.0001) %MON dynstat_theta_max            =   1.2000000000000E+00
(PID.TID 0000.0001) %MON dynstat_theta_min            =  -1.0000000000000E+00
(PID.TID 0000.0001) %MON dynstat_theta_mean           =   5.6515210621234E-01
(PID.TID 0000.0001) %MON dynstat_theta_sd             =   8.4894921651515E-01
(PID.TID 0000.0001) %MON dynstat_theta_del2           =   2.8406166189397E-06
(PID.TID 0000.0001) %MON dynstat_salt_max             =   3.4700000000000E+01
(PID.TID 0000.0001) %MON dynstat_salt_min             =   3.4000000000000E+01
(PID.TID 0000.0001) %MON dynstat_salt_mean            =   3.4497974829692E+01
(PID.TID 0000.0001) %MON dynstat_salt_sd              =   2.7011633390282E-01
(PID.TID 0000.0001) %MON dynstat_salt_del2            =   1.1232148256439E-06
(PID.TID 0000.0001) %MON advcfl_uvel_max              =   2.8621782832880E-03
(PID.TID 0000.0001) %MON advcfl_vvel_max              =   2.0226035360526E-03
(PID.TID 0000.0001) %MON advcfl_wvel_max              =   6.8116470477412E-03
(PID.TID 0000.0001) %MON advcfl_W_hf_max              =   6.8116470477412E-03
(PID.TID 0000.0001) %MON pe_b_mean                    =  -6.8209743236467E-01
(PID.TID 0000.0001) %MON ke_max                       =   3.1569286549717E-04
(PID.TID 0000.0001) %MON ke_mean                      =   3.6916288695200E-07
(PID.TID 0000.0001) %MON ke_vol                       =   4.6183043115183E+12
(PID.TID 0000.0001) // =======================================================
(PID.TID 0000.0001) // End MONITOR dynamic field statistics
(PID.TID 0000.0001) // =======================================================
(PID.TID 0000.0001) // =======================================================
(PID.TID 0000.0001) // Begin OBCS MONITOR field statistics
(PID.TID 0000.0001) // =======================================================
(PID.TID 0000.0001) %MON obc_N_vVel_max               =  -7.7342213988424E-08
(PID.TID 0000.0001) %MON obc_N_vVel_min               =  -7.7342213988427E-08
(PID.TID 0000.0001) %MON obc_N_vVel_mean              =  -7.7342213988427E-08
(PID.TID 0000.0001) %MON obc_N_vVel_sd                =  -6.1767808878805E-28
(PID.TID 0000.0001) %MON obc_N_vVel_Int               =  -5.1045861232362E+00
(PID.TID 0000.0001) // =======================================================
(PID.TID 0000.0001) // End OBCS MONITOR field statistics
(PID.TID 0000.0001) // =======================================================
 cg2d: Sum(rhs),rhsMax =   3.00905982166059E+00  4.53044468986225E+02
(PID.TID 0000.0001)      cg2d_init_res =   3.35303021324966E-06
(PID.TID 0000.0001)      cg2d_iters(min,last) =      -1      75
(PID.TID 0000.0001)      cg2d_last_res =   7.96004006755723E-12
(PID.TID 0000.0001) // =======================================================
(PID.TID 0000.0001) // Begin MONITOR dynamic field statistics
(PID.TID 0000.0001) // =======================================================
(PID.TID 0000.0001) %MON time_tsnumber                =                  1126
(PID.TID 0000.0001) %MON time_secondsf                =   1.1260000000000E+05
(PID.TID 0000.0001) %MON dynstat_eta_max              =   5.7985845343576E+00
(PID.TID 0000.0001) %MON dynstat_eta_min              =  -1.4171627557274E+01
(PID.TID 0000.0001) %MON dynstat_eta_mean             =  -2.5245146463926E+00
(PID.TID 0000.0001) %MON dynstat_eta_sd               =   4.9412040230876E+00
(PID.TID 0000.0001) %MON dynstat_eta_del2             =   1.9058636654392E-01
(PID.TID 0000.0001) %MON dynstat_uvel_max             =   6.1015965836617E-03
(PID.TID 0000.0001) %MON dynstat_uvel_min             =  -2.8689992045848E-02
(PID.TID 0000.0001) %MON dynstat_uvel_mean            =   1.8862448191785E-09
(PID.TID 0000.0001) %MON dynstat_uvel_sd              =   7.7844241993936E-04
(PID.TID 0000.0001) %MON dynstat_uvel_del2            =   1.1927898032810E-06
(PID.TID 0000.0001) %MON dynstat_vvel_max             =   2.0264836891124E-02
(PID.TID 0000.0001) %MON dynstat_vvel_min             =  -7.4918329897091E-03
(PID.TID 0000.0001) %MON dynstat_vvel_mean            =  -7.6577540106168E-08
(PID.TID 0000.0001) %MON dynstat_vvel_sd              =   3.8378462310560E-04
(PID.TID 0000.0001) %MON dynstat_vvel_del2            =   1.0148611801745E-06
(PID.TID 0000.0001) %MON dynstat_wvel_max             =   1.1613010729926E-03
(PID.TID 0000.0001) %MON dynstat_wvel_min             =  -1.3662581854249E-03
(PID.TID 0000.0001) %MON dynstat_wvel_mean            =   2.0940431423839E-10
(PID.TID 0000.0001) %MON dynstat_wvel_sd              =   1.9233244585705E-05
(PID.TID 0000.0001) %MON dynstat_wvel_del2            =   8.0523426981518E-08
(PID.TID 0000.0001) %MON dynstat_theta_max            =   1.2000000000000E+00
(PID.TID 0000.0001) %MON dynstat_theta_min            =  -1.0000000000000E+00
(PID.TID 0000.0001) %MON dynstat_theta_mean           =   5.6515144725150E-01
(PID.TID 0000.0001) %MON dynstat_theta_sd             =   8.4894892859872E-01
(PID.TID 0000.0001) %MON dynstat_theta_del2           =   2.8464534869072E-06
(PID.TID 0000.0001) %MON dynstat_salt_max             =   3.4700000000000E+01
(PID.TID 0000.0001) %MON dynstat_salt_min             =   3.4000000000000E+01
(PID.TID 0000.0001) %MON dynstat_salt_mean            =   3.4497974566612E+01
(PID.TID 0000.0001) %MON dynstat_salt_sd              =   2.7011622545642E-01
(PID.TID 0000.0001) %MON dynstat_salt_del2            =   1.1255392236867E-06
(PID.TID 0000.0001) %MON advcfl_uvel_max              =   2.8689992045848E-03
(PID.TID 0000.0001) %MON advcfl_vvel_max              =   2.0264836891124E-03
(PID.TID 0000.0001) %MON advcfl_wvel_max              =   6.8312909271243E-03
(PID.TID 0000.0001) %MON advcfl_W_hf_max              =   6.8312909271243E-03
(PID.TID 0000.0001) %MON pe_b_mean                    =  -6.8209565392424E-01
(PID.TID 0000.0001) %MON ke_max                       =   3.1744183129320E-04
(PID.TID 0000.0001) %MON ke_mean                      =   3.7093373515429E-07
(PID.TID 0000.0001) %MON ke_vol                       =   4.6183043471747E+12
(PID.TID 0000.0001) // =======================================================
(PID.TID 0000.0001) // End MONITOR dynamic field statistics
(PID.TID 0000.0001) // =======================================================
(PID.TID 0000.0001) // =======================================================
(PID.TID 0000.0001) // Begin OBCS MONITOR field statistics
(PID.TID 0000.0001) // =======================================================
(PID.TID 0000.0001) %MON obc_N_vVel_max               =  -9.3459095756353E-08
(PID.TID 0000.0001) %MON obc_N_vVel_min               =  -9.3459095756354E-08
(PID.TID 0000.0001) %MON obc_N_vVel_mean              =  -9.3459095756354E-08
(PID.TID 0000.0001) %MON obc_N_vVel_sd                =  -2.0983700078879E-28
(PID.TID 0000.0001) %MON obc_N_vVel_Int               =  -6.1683003199194E+00
(PID.TID 0000.0001) // =======================================================
(PID.TID 0000.0001) // End OBCS MONITOR field statistics
(PID.TID 0000.0001) // =======================================================
 cg2d: Sum(rhs),rhsMax =   3.00905273686224E+00  4.53044448429745E+02
(PID.TID 0000.0001)      cg2d_init_res =   3.36048360280377E-06
(PID.TID 0000.0001)      cg2d_iters(min,last) =      -1      75
(PID.TID 0000.0001)      cg2d_last_res =   7.98206566612873E-12
(PID.TID 0000.0001) // =======================================================
(PID.TID 0000.0001) // Begin MONITOR dynamic field statistics
(PID.TID 0000.0001) // =======================================================
(PID.TID 0000.0001) %MON time_tsnumber                =                  1127
(PID.TID 0000.0001) %MON time_secondsf                =   1.1270000000000E+05
(PID.TID 0000.0001) %MON dynstat_eta_max              =   5.7985874900843E+00
(PID.TID 0000.0001) %MON dynstat_eta_min              =  -1.4171614591646E+01
(PID.TID 0000.0001) %MON dynstat_eta_mean             =  -2.5245085879033E+00
(PID.TID 0000.0001) %MON dynstat_eta_sd               =   4.9412022559030E+00
(PID.TID 0000.0001) %MON dynstat_eta_del2             =   1.9058638378973E-01
(PID.TID 0000.0001) %MON dynstat_uvel_max             =   6.1167011662420E-03
(PID.TID 0000.0001) %MON dynstat_uvel_min             =  -2.8758278713769E-02
(PID.TID 0000.0001) %MON dynstat_uvel_mean            =   1.8524499711097E-09
(PID.TID 0000.0001) %MON dynstat_uvel_sd              =   7.8037863339211E-04
(PID.TID 0000.0001) %MON dynstat_uvel_del2            =   1.1957074618124E-06
(PID.TID 0000.0001) %MON dynstat_vvel_max             =   2.0303664814588E-02
(PID.TID 0000.0001) %MON dynstat_vvel_min             =  -7.5077647823871E-03
(PID.TID 0000.0001) %MON dynstat_vvel_mean            =  -9.0961031869837E-08
(PID.TID 0000.0001) %MON dynstat_vvel_sd              =   3.8455860106064E-04
(PID.TID 0000.0001) %MON dynstat_vvel_del2            =   1.0170099655946E-06
(PID.TID 0000.0001) %MON dynstat_wvel_max             =   1.1639879422539E-03
(PID.TID 0000.0001) %MON dynstat_wvel_min             =  -1.3701944330194E-03
(PID.TID 0000.0001) %MON dynstat_wvel_mean            =   2.2386000096489E-10
(PID.TID 0000.0001) %MON dynstat_wvel_sd              =   1.9280120000552E-05
(PID.TID 0000.0001) %MON dynstat_wvel_del2            =   8.0713476333471E-08
(PID.TID 0000.0001) %MON dynstat_theta_max            =   1.2000000000000E+00
(PID.TID 0000.0001) %MON dynstat_theta_min            =  -1.0000000000000E+00
(PID.TID 0000.0001) %MON dynstat_theta_mean           =   5.6515078711848E-01
(PID.TID 0000.0001) %MON dynstat_theta_sd             =   8.4894864007794E-01
(PID.TID 0000.0001) %MON dynstat_theta_del2           =   2.8523163832675E-06
(PID.TID 0000.0001) %MON dynstat_salt_max             =   3.4700000000000E+01
(PID.TID 0000.0001) %MON dynstat_salt_min             =   3.4000000000000E+01
(PID.TID 0000.0001) %MON dynstat_salt_mean            =   3.4497974303062E+01
(PID.TID 0000.0001) %MON dynstat_salt_sd              =   2.7011611677794E-01
(PID.TID 0000.0001) %MON dynstat_salt_del2            =   1.1278716831161E-06
(PID.TID 0000.0001) %MON advcfl_uvel_max              =   2.8758278713769E-03
(PID.TID 0000.0001) %MON advcfl_vvel_max              =   2.0303664814588E-03
(PID.TID 0000.0001) %MON advcfl_wvel_max              =   6.8509721650968E-03
(PID.TID 0000.0001) %MON advcfl_W_hf_max              =   6.8509721650968E-03
(PID.TID 0000.0001) %MON pe_b_mean                    =  -6.8209386918803E-01
(PID.TID 0000.0001) %MON ke_max                       =   3.1919900856653E-04
(PID.TID 0000.0001) %MON ke_mean                      =   3.7271180434242E-07
(PID.TID 0000.0001) %MON ke_vol                       =   4.6183043830004E+12
(PID.TID 0000.0001) // =======================================================
(PID.TID 0000.0001) // End MONITOR dynamic field statistics
(PID.TID 0000.0001) // =======================================================
(PID.TID 0000.0001) // =======================================================
(PID.TID 0000.0001) // Begin OBCS MONITOR field statistics
(PID.TID 0000.0001) // =======================================================
(PID.TID 0000.0001) %MON obc_N_vVel_max               =  -1.0842379014817E-07
(PID.TID 0000.0001) %MON obc_N_vVel_min               =  -1.0842379014818E-07
(PID.TID 0000.0001) %MON obc_N_vVel_mean              =  -1.0842379014817E-07
(PID.TID 0000.0001) %MON obc_N_vVel_sd                =   3.1726747628177E-14
(PID.TID 0000.0001) %MON obc_N_vVel_Int               =  -7.1559701497794E+00
(PID.TID 0000.0001) // =======================================================
(PID.TID 0000.0001) // End OBCS MONITOR field statistics
(PID.TID 0000.0001) // =======================================================
 cg2d: Sum(rhs),rhsMax =   3.00904561961803E+00  4.53044428137747E+02
(PID.TID 0000.0001)      cg2d_init_res =   3.36738946611186E-06
(PID.TID 0000.0001)      cg2d_iters(min,last) =      -1      75
(PID.TID 0000.0001)      cg2d_last_res =   8.00369723412909E-12
(PID.TID 0000.0001) // =======================================================
(PID.TID 0000.0001) // Begin MONITOR dynamic field statistics
(PID.TID 0000.0001) // =======================================================
(PID.TID 0000.0001) %MON time_tsnumber                =                  1128
(PID.TID 0000.0001) %MON time_secondsf                =   1.1280000000000E+05
(PID.TID 0000.0001) %MON dynstat_eta_max              =   5.7985904689272E+00
(PID.TID 0000.0001) %MON dynstat_eta_min              =  -1.4171601579815E+01
(PID.TID 0000.0001) %MON dynstat_eta_mean             =  -2.5245025036671E+00
(PID.TID 0000.0001) %MON dynstat_eta_sd               =   4.9412004819471E+00
(PID.TID 0000.0001) %MON dynstat_eta_del2             =   1.9058640105781E-01
(PID.TID 0000.0001) %MON dynstat_uvel_max             =   6.1318388758425E-03
(PID.TID 0000.0001) %MON dynstat_uvel_min             =  -2.8826642579528E-02
(PID.TID 0000.0001) %MON dynstat_uvel_mean            =   1.8108520121247E-09
(PID.TID 0000.0001) %MON dynstat_uvel_sd              =   7.8231877418803E-04
(PID.TID 0000.0001) %MON dynstat_uvel_del2            =   1.1986321435913E-06
(PID.TID 0000.0001) %MON dynstat_vvel_max             =   2.0342519053832E-02
(PID.TID 0000.0001) %MON dynstat_vvel_min             =  -7.5237189711359E-03
(PID.TID 0000.0001) %MON dynstat_vvel_mean            =  -1.0384410577586E-07
(PID.TID 0000.0001) %MON dynstat_vvel_sd              =   3.8533242191744E-04
(PID.TID 0000.0001) %MON dynstat_vvel_del2            =   1.0191503019784E-06
(PID.TID 0000.0001) %MON dynstat_wvel_max             =   1.1666785127473E-03
(PID.TID 0000.0001) %MON dynstat_wvel_min             =  -1.3741381443417E-03
(PID.TID 0000.0001) %MON dynstat_wvel_mean            =   2.3923467976451E-10
(PID.TID 0000.0001) %MON dynstat_wvel_sd              =   1.9321318019791E-05
(PID.TID 0000.0001) %MON dynstat_wvel_del2            =   8.0869513653631E-08
(PID.TID 0000.0001) %MON dynstat_theta_max            =   1.2000000000000E+00
(PID.TID 0000.0001) %MON dynstat_theta_min            =  -1.0000000000000E+00
(PID.TID 0000.0001) %MON dynstat_theta_mean           =   5.6515012581212E-01
(PID.TID 0000.0001) %MON dynstat_theta_sd             =   8.4894835095533E-01
(PID.TID 0000.0001) %MON dynstat_theta_del2           =   2.8582053351081E-06
(PID.TID 0000.0001) %MON dynstat_salt_max             =   3.4700000000000E+01
(PID.TID 0000.0001) %MON dynstat_salt_min             =   3.4000000000000E+01
(PID.TID 0000.0001) %MON dynstat_salt_mean            =   3.4497974039043E+01
(PID.TID 0000.0001) %MON dynstat_salt_sd              =   2.7011600786787E-01
(PID.TID 0000.0001) %MON dynstat_salt_del2            =   1.1302121846773E-06
(PID.TID 0000.0001) %MON advcfl_uvel_max              =   2.8826642579528E-03
(PID.TID 0000.0001) %MON advcfl_vvel_max              =   2.0342519053832E-03
(PID.TID 0000.0001) %MON advcfl_wvel_max              =   6.8706907217083E-03
(PID.TID 0000.0001) %MON advcfl_W_hf_max              =   6.8706907217083E-03
(PID.TID 0000.0001) %MON pe_b_mean                    =  -6.8209207848601E-01
(PID.TID 0000.0001) %MON ke_max                       =   3.2096442676359E-04
(PID.TID 0000.0001) %MON ke_mean                      =   3.7449710519301E-07
(PID.TID 0000.0001) %MON ke_vol                       =   4.6183044189879E+12
(PID.TID 0000.0001) // =======================================================
(PID.TID 0000.0001) // End MONITOR dynamic field statistics
(PID.TID 0000.0001) // =======================================================
(PID.TID 0000.0001) // =======================================================
(PID.TID 0000.0001) // Begin OBCS MONITOR field statistics
(PID.TID 0000.0001) // =======================================================
(PID.TID 0000.0001) %MON obc_N_vVel_max               =  -1.2204204868196E-07
(PID.TID 0000.0001) %MON obc_N_vVel_min               =  -1.2204204868197E-07
(PID.TID 0000.0001) %MON obc_N_vVel_mean              =  -1.2204204868196E-07
(PID.TID 0000.0001) %MON obc_N_vVel_sd                =   5.8915091300722E-15
(PID.TID 0000.0001) %MON obc_N_vVel_Int               =  -8.0547752130095E+00
(PID.TID 0000.0001) // =======================================================
(PID.TID 0000.0001) // End OBCS MONITOR field statistics
(PID.TID 0000.0001) // =======================================================
 cg2d: Sum(rhs),rhsMax =   3.00903847130107E+00  4.53044408204752E+02
(PID.TID 0000.0001)      cg2d_init_res =   3.37375962412914E-06
(PID.TID 0000.0001)      cg2d_iters(min,last) =      -1      75
(PID.TID 0000.0001)      cg2d_last_res =   8.02493884292713E-12
(PID.TID 0000.0001) // =======================================================
(PID.TID 0000.0001) // Begin MONITOR dynamic field statistics
(PID.TID 0000.0001) // =======================================================
(PID.TID 0000.0001) %MON time_tsnumber                =                  1129
(PID.TID 0000.0001) %MON time_secondsf                =   1.1290000000000E+05
(PID.TID 0000.0001) %MON dynstat_eta_max              =   5.7985934678302E+00
(PID.TID 0000.0001) %MON dynstat_eta_min              =  -1.4171588525140E+01
(PID.TID 0000.0001) %MON dynstat_eta_mean             =  -2.5244963953628E+00
(PID.TID 0000.0001) %MON dynstat_eta_sd               =   4.9411987019529E+00
(PID.TID 0000.0001) %MON dynstat_eta_del2             =   1.9058641835149E-01
(PID.TID 0000.0001) %MON dynstat_uvel_max             =   6.1470097437075E-03
(PID.TID 0000.0001) %MON dynstat_uvel_min             =  -2.8895083383763E-02
(PID.TID 0000.0001) %MON dynstat_uvel_mean            =   1.7621889635516E-09
(PID.TID 0000.0001) %MON dynstat_uvel_sd              =   7.8426284990726E-04
(PID.TID 0000.0001) %MON dynstat_uvel_del2            =   1.2015638691973E-06
(PID.TID 0000.0001) %MON dynstat_vvel_max             =   2.0381399529467E-02
(PID.TID 0000.0001) %MON dynstat_vvel_min             =  -7.5396955064644E-03
(PID.TID 0000.0001) %MON dynstat_vvel_mean            =  -1.1505816923191E-07
(PID.TID 0000.0001) %MON dynstat_vvel_sd              =   3.8610612178696E-04
(PID.TID 0000.0001) %MON dynstat_vvel_del2            =   1.0212827849753E-06
(PID.TID 0000.0001) %MON dynstat_wvel_max             =   1.1693727812858E-03
(PID.TID 0000.0001) %MON dynstat_wvel_min             =  -1.3780893098003E-03
(PID.TID 0000.0001) %MON dynstat_wvel_mean            =   2.5533760600378E-10
(PID.TID 0000.0001) %MON dynstat_wvel_sd              =   1.9356939728078E-05
(PID.TID 0000.0001) %MON dynstat_wvel_del2            =   8.0991961295538E-08
(PID.TID 0000.0001) %MON dynstat_theta_max            =   1.2000000000000E+00
(PID.TID 0000.0001) %MON dynstat_theta_min            =  -1.0000000000000E+00
(PID.TID 0000.0001) %MON dynstat_theta_mean           =   5.6514946333129E-01
(PID.TID 0000.0001) %MON dynstat_theta_sd             =   8.4894806123246E-01
(PID.TID 0000.0001) %MON dynstat_theta_del2           =   2.8641196041735E-06
(PID.TID 0000.0001) %MON dynstat_salt_max             =   3.4700000000000E+01
(PID.TID 0000.0001) %MON dynstat_salt_min             =   3.4000000000000E+01
(PID.TID 0000.0001) %MON dynstat_salt_mean            =   3.4497973774553E+01
(PID.TID 0000.0001) %MON dynstat_salt_sd              =   2.7011589872668E-01
(PID.TID 0000.0001) %MON dynstat_salt_del2            =   1.1325605094009E-06
(PID.TID 0000.0001) %MON advcfl_uvel_max              =   2.8895083383763E-03
(PID.TID 0000.0001) %MON advcfl_vvel_max              =   2.0381399529467E-03
(PID.TID 0000.0001) %MON advcfl_wvel_max              =   6.8904465490016E-03
(PID.TID 0000.0001) %MON advcfl_W_hf_max              =   6.8904465490016E-03
(PID.TID 0000.0001) %MON pe_b_mean                    =  -6.8209028218318E-01
(PID.TID 0000.0001) %MON ke_max                       =   3.2273811541024E-04
(PID.TID 0000.0001) %MON ke_mean                      =   3.7628967946891E-07
(PID.TID 0000.0001) %MON ke_vol                       =   4.6183044551282E+12
(PID.TID 0000.0001) // =======================================================
(PID.TID 0000.0001) // End MONITOR dynamic field statistics
(PID.TID 0000.0001) // =======================================================
(PID.TID 0000.0001) // =======================================================
(PID.TID 0000.0001) // Begin OBCS MONITOR field statistics
(PID.TID 0000.0001) // =======================================================
(PID.TID 0000.0001) %MON obc_N_vVel_max               =  -1.3413695287078E-07
(PID.TID 0000.0001) %MON obc_N_vVel_min               =  -1.3413695287078E-07
(PID.TID 0000.0001) %MON obc_N_vVel_mean              =  -1.3413695287078E-07
(PID.TID 0000.0001) %MON obc_N_vVel_sd                =  -4.8909376123703E-28
(PID.TID 0000.0001) %MON obc_N_vVel_Int               =  -8.8530388894716E+00
(PID.TID 0000.0001) // =======================================================
(PID.TID 0000.0001) // End OBCS MONITOR field statistics
(PID.TID 0000.0001) // =======================================================
 cg2d: Sum(rhs),rhsMax =   3.00903129352434E+00  4.53044388720542E+02
(PID.TID 0000.0001)      cg2d_init_res =   3.37959632922143E-06
(PID.TID 0000.0001)      cg2d_iters(min,last) =      -1      75
(PID.TID 0000.0001)      cg2d_last_res =   8.04576052498691E-12
(PID.TID 0000.0001) // =======================================================
(PID.TID 0000.0001) // Begin MONITOR dynamic field statistics
(PID.TID 0000.0001) // =======================================================
(PID.TID 0000.0001) %MON time_tsnumber                =                  1130
(PID.TID 0000.0001) %MON time_secondsf                =   1.1300000000000E+05
(PID.TID 0000.0001) %MON dynstat_eta_max              =   5.7985964834857E+00
(PID.TID 0000.0001) %MON dynstat_eta_min              =  -1.4171575431253E+01
(PID.TID 0000.0001) %MON dynstat_eta_mean             =  -2.5244902648439E+00
(PID.TID 0000.0001) %MON dynstat_eta_sd               =   4.9411969166925E+00
(PID.TID 0000.0001) %MON dynstat_eta_del2             =   1.9058643567417E-01
(PID.TID 0000.0001) %MON dynstat_uvel_max             =   6.1622138006561E-03
(PID.TID 0000.0001) %MON dynstat_uvel_min             =  -2.8963600864574E-02
(PID.TID 0000.0001) %MON dynstat_uvel_mean            =   1.7072984725417E-09
(PID.TID 0000.0001) %MON dynstat_uvel_sd              =   7.8621086800714E-04
(PID.TID 0000.0001) %MON dynstat_uvel_del2            =   1.2045026569932E-06
(PID.TID 0000.0001) %MON dynstat_vvel_max             =   2.0420306159489E-02
(PID.TID 0000.0001) %MON dynstat_vvel_min             =  -7.5556943400565E-03
(PID.TID 0000.0001) %MON dynstat_vvel_mean            =  -1.2445635335728E-07
(PID.TID 0000.0001) %MON dynstat_vvel_sd              =   3.8687981464479E-04
(PID.TID 0000.0001) %MON dynstat_vvel_del2            =   1.0234085582034E-06
(PID.TID 0000.0001) %MON dynstat_wvel_max             =   1.1720707446753E-03
(PID.TID 0000.0001) %MON dynstat_wvel_min             =  -1.3820479195125E-03
(PID.TID 0000.0001) %MON dynstat_wvel_mean            =   2.7196779874070E-10
(PID.TID 0000.0001) %MON dynstat_wvel_sd              =   1.9387361850744E-05
(PID.TID 0000.0001) %MON dynstat_wvel_del2            =   8.1082698090462E-08
(PID.TID 0000.0001) %MON dynstat_theta_max            =   1.2000000000000E+00
(PID.TID 0000.0001) %MON dynstat_theta_min            =  -1.0000000000000E+00
(PID.TID 0000.0001) %MON dynstat_theta_mean           =   5.6514879967492E-01
(PID.TID 0000.0001) %MON dynstat_theta_sd             =   8.4894777091054E-01
(PID.TID 0000.0001) %MON dynstat_theta_del2           =   2.8700577178378E-06
(PID.TID 0000.0001) %MON dynstat_salt_max             =   3.4700000000000E+01
(PID.TID 0000.0001) %MON dynstat_salt_min             =   3.4000000000000E+01
(PID.TID 0000.0001) %MON dynstat_salt_mean            =   3.4497973509592E+01
(PID.TID 0000.0001) %MON dynstat_salt_sd              =   2.7011578935484E-01
(PID.TID 0000.0001) %MON dynstat_salt_del2            =   1.1349162506643E-06
(PID.TID 0000.0001) %MON advcfl_uvel_max              =   2.8963600864574E-03
(PID.TID 0000.0001) %MON advcfl_vvel_max              =   2.0420306159489E-03
(PID.TID 0000.0001) %MON advcfl_wvel_max              =   6.9102395975626E-03
(PID.TID 0000.0001) %MON advcfl_W_hf_max              =   6.9102395975626E-03
(PID.TID 0000.0001) %MON pe_b_mean                    =  -6.8208848067474E-01
(PID.TID 0000.0001) %MON ke_max                       =   3.2452010409793E-04
(PID.TID 0000.0001) %MON ke_mean                      =   3.7808959917968E-07
(PID.TID 0000.0001) %MON ke_vol                       =   4.6183044914115E+12
(PID.TID 0000.0001) // =======================================================
(PID.TID 0000.0001) // End MONITOR dynamic field statistics
(PID.TID 0000.0001) // =======================================================
(PID.TID 0000.0001) // =======================================================
(PID.TID 0000.0001) // Begin OBCS MONITOR field statistics
(PID.TID 0000.0001) // =======================================================
(PID.TID 0000.0001) %MON obc_N_vVel_max               =  -1.4455135737912E-07
(PID.TID 0000.0001) %MON obc_N_vVel_min               =  -1.4455135737912E-07
(PID.TID 0000.0001) %MON obc_N_vVel_mean              =  -1.4455135737912E-07
(PID.TID 0000.0001) %MON obc_N_vVel_sd                =   2.7861068370353E-14
(PID.TID 0000.0001) %MON obc_N_vVel_Int               =  -9.5403895870216E+00
(PID.TID 0000.0001) // =======================================================
(PID.TID 0000.0001) // End OBCS MONITOR field statistics
(PID.TID 0000.0001) // =======================================================
 cg2d: Sum(rhs),rhsMax =   3.00902408811931E+00  4.53044369768944E+02
(PID.TID 0000.0001)      cg2d_init_res =   3.38491708091273E-06
(PID.TID 0000.0001)      cg2d_iters(min,last) =      -1      75
(PID.TID 0000.0001)      cg2d_last_res =   8.06614069175363E-12
(PID.TID 0000.0001) // =======================================================
(PID.TID 0000.0001) // Begin MONITOR dynamic field statistics
(PID.TID 0000.0001) // =======================================================
(PID.TID 0000.0001) %MON time_tsnumber                =                  1131
(PID.TID 0000.0001) %MON time_secondsf                =   1.1310000000000E+05
(PID.TID 0000.0001) %MON dynstat_eta_max              =   5.7985995123766E+00
(PID.TID 0000.0001) %MON dynstat_eta_min              =  -1.4171562302035E+01
(PID.TID 0000.0001) %MON dynstat_eta_mean             =  -2.5244841141140E+00
(PID.TID 0000.0001) %MON dynstat_eta_sd               =   4.9411951269664E+00
(PID.TID 0000.0001) %MON dynstat_eta_del2             =   1.9058645302933E-01
(PID.TID 0000.0001) %MON dynstat_uvel_max             =   6.1774510775798E-03
(PID.TID 0000.0001) %MON dynstat_uvel_min             =  -2.9032194757408E-02
(PID.TID 0000.0001) %MON dynstat_uvel_mean            =   1.6471041550682E-09
(PID.TID 0000.0001) %MON dynstat_uvel_sd              =   7.8816283583778E-04
(PID.TID 0000.0001) %MON dynstat_uvel_del2            =   1.2074485230994E-06
(PID.TID 0000.0001) %MON dynstat_vvel_max             =   2.0459238859069E-02
(PID.TID 0000.0001) %MON dynstat_vvel_min             =  -7.5717154254527E-03
(PID.TID 0000.0001) %MON dynstat_vvel_mean            =  -1.3191554435601E-07
(PID.TID 0000.0001) %MON dynstat_vvel_sd              =   3.8765368550637E-04
(PID.TID 0000.0001) %MON dynstat_vvel_del2            =   1.0255292499210E-06
(PID.TID 0000.0001) %MON dynstat_wvel_max             =   1.1747723997743E-03
(PID.TID 0000.0001) %MON dynstat_wvel_min             =  -1.3860139631057E-03
(PID.TID 0000.0001) %MON dynstat_wvel_mean            =   2.8891699114988E-10
(PID.TID 0000.0001) %MON dynstat_wvel_sd              =   1.9413213527253E-05
(PID.TID 0000.0001) %MON dynstat_wvel_del2            =   8.1144947737000E-08
(PID.TID 0000.0001) %MON dynstat_theta_max            =   1.2000000000000E+00
(PID.TID 0000.0001) %MON dynstat_theta_min            =  -1.0000000000000E+00
(PID.TID 0000.0001) %MON dynstat_theta_mean           =   5.6514813484193E-01
(PID.TID 0000.0001) %MON dynstat_theta_sd             =   8.4894747999091E-01
(PID.TID 0000.0001) %MON dynstat_theta_del2           =   2.8760175459039E-06
(PID.TID 0000.0001) %MON dynstat_salt_max             =   3.4700000000000E+01
(PID.TID 0000.0001) %MON dynstat_salt_min             =   3.4000000000000E+01
(PID.TID 0000.0001) %MON dynstat_salt_mean            =   3.4497973244159E+01
(PID.TID 0000.0001) %MON dynstat_salt_sd              =   2.7011567975270E-01
(PID.TID 0000.0001) %MON dynstat_salt_del2            =   1.1372788331369E-06
(PID.TID 0000.0001) %MON advcfl_uvel_max              =   2.9032194757408E-03
(PID.TID 0000.0001) %MON advcfl_vvel_max              =   2.0459238859069E-03
(PID.TID 0000.0001) %MON advcfl_wvel_max              =   6.9300698155285E-03
(PID.TID 0000.0001) %MON advcfl_W_hf_max              =   6.9300698155285E-03
(PID.TID 0000.0001) %MON pe_b_mean                    =  -6.8208667438080E-01
(PID.TID 0000.0001) %MON ke_max                       =   3.2631042248213E-04
(PID.TID 0000.0001) %MON ke_mean                      =   3.7989696425221E-07
(PID.TID 0000.0001) %MON ke_vol                       =   4.6183045278268E+12
(PID.TID 0000.0001) // =======================================================
(PID.TID 0000.0001) // End MONITOR dynamic field statistics
(PID.TID 0000.0001) // =======================================================
(PID.TID 0000.0001) // =======================================================
(PID.TID 0000.0001) // Begin OBCS MONITOR field statistics
(PID.TID 0000.0001) // =======================================================
(PID.TID 0000.0001) %MON obc_N_vVel_max               =  -1.5315007163904E-07
(PID.TID 0000.0001) %MON obc_N_vVel_min               =  -1.5315007163904E-07
(PID.TID 0000.0001) %MON obc_N_vVel_mean              =  -1.5315007163904E-07
(PID.TID 0000.0001) %MON obc_N_vVel_sd                =   8.7023357152673E-15
(PID.TID 0000.0001) %MON obc_N_vVel_Int               =  -1.0107904728177E+01
(PID.TID 0000.0001) // =======================================================
(PID.TID 0000.0001) // End OBCS MONITOR field statistics
(PID.TID 0000.0001) // =======================================================
 cg2d: Sum(rhs),rhsMax =   3.00901685711088E+00  4.53044351426825E+02
(PID.TID 0000.0001)      cg2d_init_res =   3.38975272638905E-06
(PID.TID 0000.0001)      cg2d_iters(min,last) =      -1      75
(PID.TID 0000.0001)      cg2d_last_res =   8.08606203516222E-12
(PID.TID 0000.0001) // =======================================================
(PID.TID 0000.0001) // Begin MONITOR dynamic field statistics
(PID.TID 0000.0001) // =======================================================
(PID.TID 0000.0001) %MON time_tsnumber                =                  1132
(PID.TID 0000.0001) %MON time_secondsf                =   1.1320000000000E+05
(PID.TID 0000.0001) %MON dynstat_eta_max              =   5.7986025508094E+00
(PID.TID 0000.0001) %MON dynstat_eta_min              =  -1.4171549141534E+01
(PID.TID 0000.0001) %MON dynstat_eta_mean             =  -2.5244779453003E+00
(PID.TID 0000.0001) %MON dynstat_eta_sd               =   4.9411933335928E+00
(PID.TID 0000.0001) %MON dynstat_eta_del2             =   1.9058647042043E-01
(PID.TID 0000.0001) %MON dynstat_uvel_max             =   6.1927216053670E-03
(PID.TID 0000.0001) %MON dynstat_uvel_min             =  -2.9100864795306E-02
(PID.TID 0000.0001) %MON dynstat_uvel_mean            =   1.5826033444429E-09
(PID.TID 0000.0001) %MON dynstat_uvel_sd              =   7.9011876066592E-04
(PID.TID 0000.0001) %MON dynstat_uvel_del2            =   1.2104014814834E-06
(PID.TID 0000.0001) %MON dynstat_vvel_max             =   2.0498197540302E-02
(PID.TID 0000.0001) %MON dynstat_vvel_min             =  -7.5877587180937E-03
(PID.TID 0000.0001) %MON dynstat_vvel_mean            =  -1.3733810050322E-07
(PID.TID 0000.0001) %MON dynstat_vvel_sd              =   3.8842798018435E-04
(PID.TID 0000.0001) %MON dynstat_vvel_del2            =   1.0276468899310E-06
(PID.TID 0000.0001) %MON dynstat_wvel_max             =   1.1774777434450E-03
(PID.TID 0000.0001) %MON dynstat_wvel_min             =  -1.3899874298862E-03
(PID.TID 0000.0001) %MON dynstat_wvel_mean            =   3.0597187595549E-10
(PID.TID 0000.0001) %MON dynstat_wvel_sd              =   1.9435342369263E-05
(PID.TID 0000.0001) %MON dynstat_wvel_del2            =   8.1183126444039E-08
(PID.TID 0000.0001) %MON dynstat_theta_max            =   1.2000000000000E+00
(PID.TID 0000.0001) %MON dynstat_theta_min            =  -1.0000000000000E+00
(PID.TID 0000.0001) %MON dynstat_theta_mean           =   5.6514746883119E-01
(PID.TID 0000.0001) %MON dynstat_theta_sd             =   8.4894718847453E-01
(PID.TID 0000.0001) %MON dynstat_theta_del2           =   2.8819964402394E-06
(PID.TID 0000.0001) %MON dynstat_salt_max             =   3.4700000000000E+01
(PID.TID 0000.0001) %MON dynstat_salt_min             =   3.4000000000000E+01
(PID.TID 0000.0001) %MON dynstat_salt_mean            =   3.4497972978255E+01
(PID.TID 0000.0001) %MON dynstat_salt_sd              =   2.7011556992036E-01
(PID.TID 0000.0001) %MON dynstat_salt_del2            =   1.1396475388506E-06
(PID.TID 0000.0001) %MON advcfl_uvel_max              =   2.9100864795306E-03
(PID.TID 0000.0001) %MON advcfl_vvel_max              =   2.0498197540302E-03
(PID.TID 0000.0001) %MON advcfl_wvel_max              =   6.9499371494312E-03
(PID.TID 0000.0001) %MON advcfl_W_hf_max              =   6.9499371494312E-03
(PID.TID 0000.0001) %MON pe_b_mean                    =  -6.8208486374074E-01
(PID.TID 0000.0001) %MON ke_max                       =   3.2810910028910E-04
(PID.TID 0000.0001) %MON ke_mean                      =   3.8171189884891E-07
(PID.TID 0000.0001) %MON ke_vol                       =   4.6183045643622E+12
(PID.TID 0000.0001) // =======================================================
(PID.TID 0000.0001) // End MONITOR dynamic field statistics
(PID.TID 0000.0001) // =======================================================
(PID.TID 0000.0001) // =======================================================
(PID.TID 0000.0001) // Begin OBCS MONITOR field statistics
(PID.TID 0000.0001) // =======================================================
(PID.TID 0000.0001) %MON obc_N_vVel_max               =  -1.5982167262139E-07
(PID.TID 0000.0001) %MON obc_N_vVel_min               =  -1.5982167262140E-07
(PID.TID 0000.0001) %MON obc_N_vVel_mean              =  -1.5982167262139E-07
(PID.TID 0000.0001) %MON obc_N_vVel_sd                =   3.1225503660520E-14
(PID.TID 0000.0001) %MON obc_N_vVel_Int               =  -1.0548230393012E+01
(PID.TID 0000.0001) // =======================================================
(PID.TID 0000.0001) // End OBCS MONITOR field statistics
(PID.TID 0000.0001) // =======================================================
 cg2d: Sum(rhs),rhsMax =   3.00900960269057E+00  4.53044333763025E+02
(PID.TID 0000.0001)      cg2d_init_res =   3.39414513487502E-06
(PID.TID 0000.0001)      cg2d_iters(min,last) =      -1      75
(PID.TID 0000.0001)      cg2d_last_res =   8.10550704458261E-12
(PID.TID 0000.0001) // =======================================================
(PID.TID 0000.0001) // Begin MONITOR dynamic field statistics
(PID.TID 0000.0001) // =======================================================
(PID.TID 0000.0001) %MON time_tsnumber                =                  1133
(PID.TID 0000.0001) %MON time_secondsf                =   1.1330000000000E+05
(PID.TID 0000.0001) %MON dynstat_eta_max              =   5.7986055949849E+00
(PID.TID 0000.0001) %MON dynstat_eta_min              =  -1.4171535953942E+01
(PID.TID 0000.0001) %MON dynstat_eta_mean             =  -2.5244717606250E+00
(PID.TID 0000.0001) %MON dynstat_eta_sd               =   4.9411915373961E+00
(PID.TID 0000.0001) %MON dynstat_eta_del2             =   1.9058648785086E-01
(PID.TID 0000.0001) %MON dynstat_uvel_max             =   6.2080254148436E-03
(PID.TID 0000.0001) %MON dynstat_uvel_min             =  -2.9169610708901E-02
(PID.TID 0000.0001) %MON dynstat_uvel_mean            =   1.5148537202784E-09
(PID.TID 0000.0001) %MON dynstat_uvel_sd              =   7.9207864970957E-04
(PID.TID 0000.0001) %MON dynstat_uvel_del2            =   1.2133615439140E-06
(PID.TID 0000.0001) %MON dynstat_vvel_max             =   2.0537182111988E-02
(PID.TID 0000.0001) %MON dynstat_vvel_min             =  -7.6038241753711E-03
(PID.TID 0000.0001) %MON dynstat_vvel_mean            =  -1.4065323570668E-07
(PID.TID 0000.0001) %MON dynstat_vvel_sd              =   3.8920299221693E-04
(PID.TID 0000.0001) %MON dynstat_vvel_del2            =   1.0297638106716E-06
(PID.TID 0000.0001) %MON dynstat_wvel_max             =   1.1801867725876E-03
(PID.TID 0000.0001) %MON dynstat_wvel_min             =  -1.3939683086567E-03
(PID.TID 0000.0001) %MON dynstat_wvel_mean            =   3.2291703332273E-10
(PID.TID 0000.0001) %MON dynstat_wvel_sd              =   1.9454771244338E-05
(PID.TID 0000.0001) %MON dynstat_wvel_del2            =   8.1202654279094E-08
(PID.TID 0000.0001) %MON dynstat_theta_max            =   1.2000000000000E+00
(PID.TID 0000.0001) %MON dynstat_theta_min            =  -1.0000000000000E+00
(PID.TID 0000.0001) %MON dynstat_theta_mean           =   5.6514680164157E-01
(PID.TID 0000.0001) %MON dynstat_theta_sd             =   8.4894689636109E-01
(PID.TID 0000.0001) %MON dynstat_theta_del2           =   2.8879914212738E-06
(PID.TID 0000.0001) %MON dynstat_salt_max             =   3.4700000000000E+01
(PID.TID 0000.0001) %MON dynstat_salt_min             =   3.4000000000000E+01
(PID.TID 0000.0001) %MON dynstat_salt_mean            =   3.4497972711878E+01
(PID.TID 0000.0001) %MON dynstat_salt_sd              =   2.7011545985791E-01
(PID.TID 0000.0001) %MON dynstat_salt_del2            =   1.1420215628765E-06
(PID.TID 0000.0001) %MON advcfl_uvel_max              =   2.9169610708901E-03
(PID.TID 0000.0001) %MON advcfl_vvel_max              =   2.0537182111988E-03
(PID.TID 0000.0001) %MON advcfl_wvel_max              =   6.9698415432836E-03
(PID.TID 0000.0001) %MON advcfl_W_hf_max              =   6.9698415432836E-03
(PID.TID 0000.0001) %MON pe_b_mean                    =  -6.8208304920732E-01
(PID.TID 0000.0001) %MON ke_max                       =   3.2991616732011E-04
(PID.TID 0000.0001) %MON ke_mean                      =   3.8353454654555E-07
(PID.TID 0000.0001) %MON ke_vol                       =   4.6183046010049E+12
(PID.TID 0000.0001) // =======================================================
(PID.TID 0000.0001) // End MONITOR dynamic field statistics
(PID.TID 0000.0001) // =======================================================
(PID.TID 0000.0001) // =======================================================
(PID.TID 0000.0001) // Begin OBCS MONITOR field statistics
(PID.TID 0000.0001) // =======================================================
(PID.TID 0000.0001) %MON obc_N_vVel_max               =  -1.6448007754645E-07
(PID.TID 0000.0001) %MON obc_N_vVel_min               =  -1.6448007754646E-07
(PID.TID 0000.0001) %MON obc_N_vVel_mean              =  -1.6448007754645E-07
(PID.TID 0000.0001) %MON obc_N_vVel_sd                =   2.4932356353024E-14
(PID.TID 0000.0001) %MON obc_N_vVel_Int               =  -1.0855685118066E+01
(PID.TID 0000.0001) // =======================================================
(PID.TID 0000.0001) // End OBCS MONITOR field statistics
(PID.TID 0000.0001) // =======================================================
 cg2d: Sum(rhs),rhsMax =   3.00900232718746E+00  4.53044316837586E+02
(PID.TID 0000.0001)      cg2d_init_res =   3.39815299679832E-06
(PID.TID 0000.0001)      cg2d_iters(min,last) =      -1      75
(PID.TID 0000.0001)      cg2d_last_res =   8.12448120253881E-12
(PID.TID 0000.0001) // =======================================================
(PID.TID 0000.0001) // Begin MONITOR dynamic field statistics
(PID.TID 0000.0001) // =======================================================
(PID.TID 0000.0001) %MON time_tsnumber                =                  1134
(PID.TID 0000.0001) %MON time_secondsf                =   1.1340000000000E+05
(PID.TID 0000.0001) %MON dynstat_eta_max              =   5.7986086410203E+00
(PID.TID 0000.0001) %MON dynstat_eta_min              =  -1.4171522743506E+01
(PID.TID 0000.0001) %MON dynstat_eta_mean             =  -2.5244655623766E+00
(PID.TID 0000.0001) %MON dynstat_eta_sd               =   4.9411897391987E+00
(PID.TID 0000.0001) %MON dynstat_eta_del2             =   1.9058650532400E-01
(PID.TID 0000.0001) %MON dynstat_uvel_max             =   6.2233625368409E-03
(PID.TID 0000.0001) %MON dynstat_uvel_min             =  -2.9238432226667E-02
(PID.TID 0000.0001) %MON dynstat_uvel_mean            =   1.4449585398214E-09
(PID.TID 0000.0001) %MON dynstat_uvel_sd              =   7.9404251016863E-04
(PID.TID 0000.0001) %MON dynstat_uvel_del2            =   1.2163287207541E-06
(PID.TID 0000.0001) %MON dynstat_vvel_max             =   2.0576192479535E-02
(PID.TID 0000.0001) %MON dynstat_vvel_min             =  -7.6199117569047E-03
(PID.TID 0000.0001) %MON dynstat_vvel_mean            =  -1.4181805818560E-07
(PID.TID 0000.0001) %MON dynstat_vvel_sd              =   3.8997904752695E-04
(PID.TID 0000.0001) %MON dynstat_vvel_del2            =   1.0318825369601E-06
(PID.TID 0000.0001) %MON dynstat_wvel_max             =   1.1828994841337E-03
(PID.TID 0000.0001) %MON dynstat_wvel_min             =  -1.3979565878152E-03
(PID.TID 0000.0001) %MON dynstat_wvel_mean            =   3.3953758066178E-10
(PID.TID 0000.0001) %MON dynstat_wvel_sd              =   1.9472647489996E-05
(PID.TID 0000.0001) %MON dynstat_wvel_del2            =   8.1209734074939E-08
(PID.TID 0000.0001) %MON dynstat_theta_max            =   1.2000000000000E+00
(PID.TID 0000.0001) %MON dynstat_theta_min            =  -1.0000000000000E+00
(PID.TID 0000.0001) %MON dynstat_theta_mean           =   5.6514613327196E-01
(PID.TID 0000.0001) %MON dynstat_theta_sd             =   8.4894660365104E-01
(PID.TID 0000.0001) %MON dynstat_theta_del2           =   2.8939989028574E-06
(PID.TID 0000.0001) %MON dynstat_salt_max             =   3.4700000000000E+01
(PID.TID 0000.0001) %MON dynstat_salt_min             =   3.4000000000000E+01
(PID.TID 0000.0001) %MON dynstat_salt_mean            =   3.4497972445028E+01
(PID.TID 0000.0001) %MON dynstat_salt_sd              =   2.7011534956533E-01
(PID.TID 0000.0001) %MON dynstat_salt_del2            =   1.1444000586659E-06
(PID.TID 0000.0001) %MON advcfl_uvel_max              =   2.9238432226667E-03
(PID.TID 0000.0001) %MON advcfl_vvel_max              =   2.0576192479535E-03
(PID.TID 0000.0001) %MON advcfl_wvel_max              =   6.9897829390760E-03
(PID.TID 0000.0001) %MON advcfl_W_hf_max              =   6.9897829390760E-03
(PID.TID 0000.0001) %MON pe_b_mean                    =  -6.8208123124078E-01
(PID.TID 0000.0001) %MON ke_max                       =   3.3173165345220E-04
(PID.TID 0000.0001) %MON ke_mean                      =   3.8536506456170E-07
(PID.TID 0000.0001) %MON ke_vol                       =   4.6183046377419E+12
(PID.TID 0000.0001) // =======================================================
(PID.TID 0000.0001) // End MONITOR dynamic field statistics
(PID.TID 0000.0001) // =======================================================
(PID.TID 0000.0001) // =======================================================
(PID.TID 0000.0001) // Begin OBCS MONITOR field statistics
(PID.TID 0000.0001) // =======================================================
(PID.TID 0000.0001) %MON obc_N_vVel_max               =  -1.6706577326298E-07
(PID.TID 0000.0001) %MON obc_N_vVel_min               =  -1.6706577326298E-07
(PID.TID 0000.0001) %MON obc_N_vVel_mean              =  -1.6706577326298E-07
(PID.TID 0000.0001) %MON obc_N_vVel_sd                =  -2.5874637691249E-28
(PID.TID 0000.0001) %MON obc_N_vVel_Int               =  -1.1026341035357E+01
(PID.TID 0000.0001) // =======================================================
(PID.TID 0000.0001) // End OBCS MONITOR field statistics
(PID.TID 0000.0001) // =======================================================
 cg2d: Sum(rhs),rhsMax =   3.00899503303752E+00  4.53044300700854E+02
(PID.TID 0000.0001)      cg2d_init_res =   3.40186326849898E-06
(PID.TID 0000.0001)      cg2d_iters(min,last) =      -1      75
(PID.TID 0000.0001)      cg2d_last_res =   8.14307176296671E-12
(PID.TID 0000.0001) // =======================================================
(PID.TID 0000.0001) // Begin MONITOR dynamic field statistics
(PID.TID 0000.0001) // =======================================================
(PID.TID 0000.0001) %MON time_tsnumber                =                  1135
(PID.TID 0000.0001) %MON time_secondsf                =   1.1350000000000E+05
(PID.TID 0000.0001) %MON dynstat_eta_max              =   5.7986116850294E+00
(PID.TID 0000.0001) %MON dynstat_eta_min              =  -1.4171509514504E+01
(PID.TID 0000.0001) %MON dynstat_eta_mean             =  -2.5244593528793E+00
(PID.TID 0000.0001) %MON dynstat_eta_sd               =   4.9411879398147E+00
(PID.TID 0000.0001) %MON dynstat_eta_del2             =   1.9058652284355E-01
(PID.TID 0000.0001) %MON dynstat_uvel_max             =   6.2387330020846E-03
(PID.TID 0000.0001) %MON dynstat_uvel_min             =  -2.9307329074904E-02
(PID.TID 0000.0001) %MON dynstat_uvel_mean            =   1.3740646075314E-09
(PID.TID 0000.0001) %MON dynstat_uvel_sd              =   7.9601034917743E-04
(PID.TID 0000.0001) %MON dynstat_uvel_del2            =   1.2193030241717E-06
(PID.TID 0000.0001) %MON dynstat_vvel_max             =   2.0615228544796E-02
(PID.TID 0000.0001) %MON dynstat_vvel_min             =  -7.6360214243820E-03
(PID.TID 0000.0001) %MON dynstat_vvel_mean            =  -1.4081824575238E-07
(PID.TID 0000.0001) %MON dynstat_vvel_sd              =   3.9075648737868E-04
(PID.TID 0000.0001) %MON dynstat_vvel_del2            =   1.0340056696907E-06
(PID.TID 0000.0001) %MON dynstat_wvel_max             =   1.1856158750379E-03
(PID.TID 0000.0001) %MON dynstat_wvel_min             =  -1.4019522552922E-03
(PID.TID 0000.0001) %MON dynstat_wvel_mean            =   3.5562175241720E-10
(PID.TID 0000.0001) %MON dynstat_wvel_sd              =   1.9490186546173E-05
(PID.TID 0000.0001) %MON dynstat_wvel_del2            =   8.1211101696359E-08
(PID.TID 0000.0001) %MON dynstat_theta_max            =   1.2000000000000E+00
(PID.TID 0000.0001) %MON dynstat_theta_min            =  -1.0000000000000E+00
(PID.TID 0000.0001) %MON dynstat_theta_mean           =   5.6514546372125E-01
(PID.TID 0000.0001) %MON dynstat_theta_sd             =   8.4894631034486E-01
(PID.TID 0000.0001) %MON dynstat_theta_del2           =   2.9000152668503E-06
(PID.TID 0000.0001) %MON dynstat_salt_max             =   3.4700000000000E+01
(PID.TID 0000.0001) %MON dynstat_salt_min             =   3.4000000000000E+01
(PID.TID 0000.0001) %MON dynstat_salt_mean            =   3.4497972177705E+01
(PID.TID 0000.0001) %MON dynstat_salt_sd              =   2.7011523904275E-01
(PID.TID 0000.0001) %MON dynstat_salt_del2            =   1.1467819996013E-06
(PID.TID 0000.0001) %MON advcfl_uvel_max              =   2.9307329074904E-03
(PID.TID 0000.0001) %MON advcfl_vvel_max              =   2.0615228544796E-03
(PID.TID 0000.0001) %MON advcfl_wvel_max              =   7.0097612764610E-03
(PID.TID 0000.0001) %MON advcfl_W_hf_max              =   7.0097612764610E-03
(PID.TID 0000.0001) %MON pe_b_mean                    =  -6.8207941030265E-01
(PID.TID 0000.0001) %MON ke_max                       =   3.3355558864215E-04
(PID.TID 0000.0001) %MON ke_mean                      =   3.8720361719406E-07
(PID.TID 0000.0001) %MON ke_vol                       =   4.6183046745595E+12
(PID.TID 0000.0001) // =======================================================
(PID.TID 0000.0001) // End MONITOR dynamic field statistics
(PID.TID 0000.0001) // =======================================================
(PID.TID 0000.0001) // =======================================================
(PID.TID 0000.0001) // Begin OBCS MONITOR field statistics
(PID.TID 0000.0001) // =======================================================
(PID.TID 0000.0001) %MON obc_N_vVel_max               =  -1.6754670592761E-07
(PID.TID 0000.0001) %MON obc_N_vVel_min               =  -1.6754670592761E-07
(PID.TID 0000.0001) %MON obc_N_vVel_mean              =  -1.6754670592761E-07
(PID.TID 0000.0001) %MON obc_N_vVel_sd                =   1.7313784796629E-14
(PID.TID 0000.0001) %MON obc_N_vVel_Int               =  -1.1058082591222E+01
(PID.TID 0000.0001) // =======================================================
(PID.TID 0000.0001) // End OBCS MONITOR field statistics
(PID.TID 0000.0001) // =======================================================
 cg2d: Sum(rhs),rhsMax =   3.00898772275013E+00  4.53044285392891E+02
(PID.TID 0000.0001)      cg2d_init_res =   3.40529462181544E-06
(PID.TID 0000.0001)      cg2d_iters(min,last) =      -1      75
(PID.TID 0000.0001)      cg2d_last_res =   8.16105679952148E-12
(PID.TID 0000.0001) // =======================================================
(PID.TID 0000.0001) // Begin MONITOR dynamic field statistics
(PID.TID 0000.0001) // =======================================================
(PID.TID 0000.0001) %MON time_tsnumber                =                  1136
(PID.TID 0000.0001) %MON time_secondsf                =   1.1360000000000E+05
(PID.TID 0000.0001) %MON dynstat_eta_max              =   5.7986147231524E+00
(PID.TID 0000.0001) %MON dynstat_eta_min              =  -1.4171496271169E+01
(PID.TID 0000.0001) %MON dynstat_eta_mean             =  -2.5244531344617E+00
(PID.TID 0000.0001) %MON dynstat_eta_sd               =   4.9411861400197E+00
(PID.TID 0000.0001) %MON dynstat_eta_del2             =   1.9058654041220E-01
(PID.TID 0000.0001) %MON dynstat_uvel_max             =   6.2541368412594E-03
(PID.TID 0000.0001) %MON dynstat_uvel_min             =  -2.9376300977841E-02
(PID.TID 0000.0001) %MON dynstat_uvel_mean            =   1.3033316256028E-09
(PID.TID 0000.0001) %MON dynstat_uvel_sd              =   7.9798217400273E-04
(PID.TID 0000.0001) %MON dynstat_uvel_del2            =   1.2222844618117E-06
(PID.TID 0000.0001) %MON dynstat_vvel_max             =   2.0654290206082E-02
(PID.TID 0000.0001) %MON dynstat_vvel_min             =  -7.6521531416889E-03
(PID.TID 0000.0001) %MON dynstat_vvel_mean            =  -1.3766830612762E-07
(PID.TID 0000.0001) %MON dynstat_vvel_sd              =   3.9153565187659E-04
(PID.TID 0000.0001) %MON dynstat_vvel_del2            =   1.0361357645140E-06
(PID.TID 0000.0001) %MON dynstat_wvel_max             =   1.1883359422964E-03
(PID.TID 0000.0001) %MON dynstat_wvel_min             =  -1.4059552985708E-03
(PID.TID 0000.0001) %MON dynstat_wvel_mean            =   3.7096583969927E-10
(PID.TID 0000.0001) %MON dynstat_wvel_sd              =   1.9508612301105E-05
(PID.TID 0000.0001) %MON dynstat_wvel_del2            =   8.1213751649671E-08
(PID.TID 0000.0001) %MON dynstat_theta_max            =   1.2000000000000E+00
(PID.TID 0000.0001) %MON dynstat_theta_min            =  -1.0000000000000E+00
(PID.TID 0000.0001) %MON dynstat_theta_mean           =   5.6514479298836E-01
(PID.TID 0000.0001) %MON dynstat_theta_sd             =   8.4894601644200E-01
(PID.TID 0000.0001) %MON dynstat_theta_del2           =   2.9060370789854E-06
(PID.TID 0000.0001) %MON dynstat_salt_max             =   3.4700000000000E+01
(PID.TID 0000.0001) %MON dynstat_salt_min             =   3.4000000000000E+01
(PID.TID 0000.0001) %MON dynstat_salt_mean            =   3.4497971909908E+01
(PID.TID 0000.0001) %MON dynstat_salt_sd              =   2.7011512829014E-01
(PID.TID 0000.0001) %MON dynstat_salt_del2            =   1.1491664954843E-06
(PID.TID 0000.0001) %MON advcfl_uvel_max              =   2.9376300977841E-03
(PID.TID 0000.0001) %MON advcfl_vvel_max              =   2.0654290206082E-03
(PID.TID 0000.0001) %MON advcfl_wvel_max              =   7.0297764928540E-03
(PID.TID 0000.0001) %MON advcfl_W_hf_max              =   7.0297764928540E-03
(PID.TID 0000.0001) %MON pe_b_mean                    =  -6.8207758684944E-01
(PID.TID 0000.0001) %MON ke_max                       =   3.3538800292244E-04
(PID.TID 0000.0001) %MON ke_mean                      =   3.8905036957444E-07
(PID.TID 0000.0001) %MON ke_vol                       =   4.6183047114439E+12
(PID.TID 0000.0001) // =======================================================
(PID.TID 0000.0001) // End MONITOR dynamic field statistics
(PID.TID 0000.0001) // =======================================================
(PID.TID 0000.0001) // =======================================================
(PID.TID 0000.0001) // Begin OBCS MONITOR field statistics
(PID.TID 0000.0001) // =======================================================
(PID.TID 0000.0001) %MON obc_N_vVel_max               =  -1.6591879659696E-07
(PID.TID 0000.0001) %MON obc_N_vVel_min               =  -1.6591879659696E-07
(PID.TID 0000.0001) %MON obc_N_vVel_mean              =  -1.6591879659696E-07
(PID.TID 0000.0001) %MON obc_N_vVel_sd                =   4.3220627292571E-14
(PID.TID 0000.0001) %MON obc_N_vVel_Int               =  -1.0950640575399E+01
(PID.TID 0000.0001) // =======================================================
(PID.TID 0000.0001) // End OBCS MONITOR field statistics
(PID.TID 0000.0001) // =======================================================
 cg2d: Sum(rhs),rhsMax =   3.00898039887447E+00  4.53044270942893E+02
(PID.TID 0000.0001)      cg2d_init_res =   3.40855235342773E-06
(PID.TID 0000.0001)      cg2d_iters(min,last) =      -1      75
(PID.TID 0000.0001)      cg2d_last_res =   8.17856100390720E-12
(PID.TID 0000.0001) // =======================================================
(PID.TID 0000.0001) // Begin MONITOR dynamic field statistics
(PID.TID 0000.0001) // =======================================================
(PID.TID 0000.0001) %MON time_tsnumber                =                  1137
(PID.TID 0000.0001) %MON time_secondsf                =   1.1370000000000E+05
(PID.TID 0000.0001) %MON dynstat_eta_max              =   5.7986177516116E+00
(PID.TID 0000.0001) %MON dynstat_eta_min              =  -1.4171483017635E+01
(PID.TID 0000.0001) %MON dynstat_eta_mean             =  -2.5244469094251E+00
(PID.TID 0000.0001) %MON dynstat_eta_sd               =   4.9411843405598E+00
(PID.TID 0000.0001) %MON dynstat_eta_del2             =   1.9058655803289E-01
(PID.TID 0000.0001) %MON dynstat_uvel_max             =   6.2695740850192E-03
(PID.TID 0000.0001) %MON dynstat_uvel_min             =  -2.9445347657741E-02
(PID.TID 0000.0001) %MON dynstat_uvel_mean            =   1.2339193260915E-09
(PID.TID 0000.0001) %MON dynstat_uvel_sd              =   7.9995799201062E-04
(PID.TID 0000.0001) %MON dynstat_uvel_del2            =   1.2252730407782E-06
(PID.TID 0000.0001) %MON dynstat_vvel_max             =   2.0693377357893E-02
(PID.TID 0000.0001) %MON dynstat_vvel_min             =  -7.6683068748649E-03
(PID.TID 0000.0001) %MON dynstat_vvel_mean            =  -1.3241148593971E-07
(PID.TID 0000.0001) %MON dynstat_vvel_sd              =   3.9231686255700E-04
(PID.TID 0000.0001) %MON dynstat_vvel_del2            =   1.0382752155485E-06
(PID.TID 0000.0001) %MON dynstat_wvel_max             =   1.1910596828922E-03
(PID.TID 0000.0001) %MON dynstat_wvel_min             =  -1.4099657046632E-03
(PID.TID 0000.0001) %MON dynstat_wvel_mean            =   3.8537363738466E-10
(PID.TID 0000.0001) %MON dynstat_wvel_sd              =   1.9529096612662E-05
(PID.TID 0000.0001) %MON dynstat_wvel_del2            =   8.1224643686956E-08
(PID.TID 0000.0001) %MON dynstat_theta_max            =   1.2000000000000E+00
(PID.TID 0000.0001) %MON dynstat_theta_min            =  -1.0000000000000E+00
(PID.TID 0000.0001) %MON dynstat_theta_mean           =   5.6514412107215E-01
(PID.TID 0000.0001) %MON dynstat_theta_sd             =   8.4894572194187E-01
(PID.TID 0000.0001) %MON dynstat_theta_del2           =   2.9120610208638E-06
(PID.TID 0000.0001) %MON dynstat_salt_max             =   3.4700000000000E+01
(PID.TID 0000.0001) %MON dynstat_salt_min             =   3.4000000000000E+01
(PID.TID 0000.0001) %MON dynstat_salt_mean            =   3.4497971641636E+01
(PID.TID 0000.0001) %MON dynstat_salt_sd              =   2.7011501730726E-01
(PID.TID 0000.0001) %MON dynstat_salt_del2            =   1.1515526776812E-06
(PID.TID 0000.0001) %MON advcfl_uvel_max              =   2.9445347657741E-03
(PID.TID 0000.0001) %MON advcfl_vvel_max              =   2.0693377357893E-03
(PID.TID 0000.0001) %MON advcfl_wvel_max              =   7.0498285233160E-03
(PID.TID 0000.0001) %MON advcfl_W_hf_max              =   7.0498285233160E-03
(PID.TID 0000.0001) %MON pe_b_mean                    =  -6.8207576132646E-01
(PID.TID 0000.0001) %MON ke_max                       =   3.3722892640916E-04
(PID.TID 0000.0001) %MON ke_mean                      =   3.9090548081640E-07
(PID.TID 0000.0001) %MON ke_vol                       =   4.6183047483813E+12
(PID.TID 0000.0001) // =======================================================
(PID.TID 0000.0001) // End MONITOR dynamic field statistics
(PID.TID 0000.0001) // =======================================================
(PID.TID 0000.0001) // =======================================================
(PID.TID 0000.0001) // Begin OBCS MONITOR field statistics
(PID.TID 0000.0001) // =======================================================
(PID.TID 0000.0001) %MON obc_N_vVel_max               =  -1.6220604855211E-07
(PID.TID 0000.0001) %MON obc_N_vVel_min               =  -1.6220604855211E-07
(PID.TID 0000.0001) %MON obc_N_vVel_mean              =  -1.6220604855211E-07
(PID.TID 0000.0001) %MON obc_N_vVel_sd                =  -1.4294159602605E-27
(PID.TID 0000.0001) %MON obc_N_vVel_Int               =  -1.0705599204439E+01
(PID.TID 0000.0001) // =======================================================
(PID.TID 0000.0001) // End OBCS MONITOR field statistics
(PID.TID 0000.0001) // =======================================================
 cg2d: Sum(rhs),rhsMax =   3.00897306396519E+00  4.53044257368919E+02
(PID.TID 0000.0001)      cg2d_init_res =   3.41171099370009E-06
(PID.TID 0000.0001)      cg2d_iters(min,last) =      -1      75
(PID.TID 0000.0001)      cg2d_last_res =   8.19558431917234E-12
(PID.TID 0000.0001) // =======================================================
(PID.TID 0000.0001) // Begin MONITOR dynamic field statistics
(PID.TID 0000.0001) // =======================================================
(PID.TID 0000.0001) %MON time_tsnumber                =                  1138
(PID.TID 0000.0001) %MON time_secondsf                =   1.1380000000000E+05
(PID.TID 0000.0001) %MON dynstat_eta_max              =   5.7986207667731E+00
(PID.TID 0000.0001) %MON dynstat_eta_min              =  -1.4171469757885E+01
(PID.TID 0000.0001) %MON dynstat_eta_mean             =  -2.5244406800133E+00
(PID.TID 0000.0001) %MON dynstat_eta_sd               =   4.9411825421354E+00
(PID.TID 0000.0001) %MON dynstat_eta_del2             =   1.9058657570830E-01
(PID.TID 0000.0001) %MON dynstat_uvel_max             =   6.2850447638709E-03
(PID.TID 0000.0001) %MON dynstat_uvel_min             =  -2.9514468834920E-02
(PID.TID 0000.0001) %MON dynstat_uvel_mean            =   1.1669733024920E-09
(PID.TID 0000.0001) %MON dynstat_uvel_sd              =   8.0193781070200E-04
(PID.TID 0000.0001) %MON dynstat_uvel_del2            =   1.2282687679022E-06
(PID.TID 0000.0001) %MON dynstat_vvel_max             =   2.0732489891210E-02
(PID.TID 0000.0001) %MON dynstat_vvel_min             =  -7.6844825919808E-03
(PID.TID 0000.0001) %MON dynstat_vvel_mean            =  -1.2511928171623E-07
(PID.TID 0000.0001) %MON dynstat_vvel_sd              =   3.9310040647964E-04
(PID.TID 0000.0001) %MON dynstat_vvel_del2            =   1.0404261453072E-06
(PID.TID 0000.0001) %MON dynstat_wvel_max             =   1.1937870938354E-03
(PID.TID 0000.0001) %MON dynstat_wvel_min             =  -1.4139834601575E-03
(PID.TID 0000.0001) %MON dynstat_wvel_mean            =   3.9866141324048E-10
(PID.TID 0000.0001) %MON dynstat_wvel_sd              =   1.9552700866753E-05
(PID.TID 0000.0001) %MON dynstat_wvel_del2            =   8.1250398854400E-08
(PID.TID 0000.0001) %MON dynstat_theta_max            =   1.2000000000000E+00
(PID.TID 0000.0001) %MON dynstat_theta_min            =  -1.0000000000000E+00
(PID.TID 0000.0001) %MON dynstat_theta_mean           =   5.6514344797153E-01
(PID.TID 0000.0001) %MON dynstat_theta_sd             =   8.4894542684250E-01
(PID.TID 0000.0001) %MON dynstat_theta_del2           =   2.9180841118842E-06
(PID.TID 0000.0001) %MON dynstat_salt_max             =   3.4700000000000E+01
(PID.TID 0000.0001) %MON dynstat_salt_min             =   3.4000000000000E+01
(PID.TID 0000.0001) %MON dynstat_salt_mean            =   3.4497971372890E+01
(PID.TID 0000.0001) %MON dynstat_salt_sd              =   2.7011490609347E-01
(PID.TID 0000.0001) %MON dynstat_salt_del2            =   1.1539397638844E-06
(PID.TID 0000.0001) %MON advcfl_uvel_max              =   2.9514468834920E-03
(PID.TID 0000.0001) %MON advcfl_vvel_max              =   2.0732489891210E-03
(PID.TID 0000.0001) %MON advcfl_wvel_max              =   7.0699173007875E-03
(PID.TID 0000.0001) %MON advcfl_W_hf_max              =   7.0699173007875E-03
(PID.TID 0000.0001) %MON pe_b_mean                    =  -6.8207393416188E-01
(PID.TID 0000.0001) %MON ke_max                       =   3.3907838930135E-04
(PID.TID 0000.0001) %MON ke_mean                      =   3.9276909772334E-07
(PID.TID 0000.0001) %MON ke_vol                       =   4.6183047853580E+12
(PID.TID 0000.0001) // =======================================================
(PID.TID 0000.0001) // End MONITOR dynamic field statistics
(PID.TID 0000.0001) // =======================================================
(PID.TID 0000.0001) // =======================================================
(PID.TID 0000.0001) // Begin OBCS MONITOR field statistics
(PID.TID 0000.0001) // =======================================================
(PID.TID 0000.0001) %MON obc_N_vVel_max               =  -1.5646036584451E-07
(PID.TID 0000.0001) %MON obc_N_vVel_min               =  -1.5646036584451E-07
(PID.TID 0000.0001) %MON obc_N_vVel_mean              =  -1.5646036584451E-07
(PID.TID 0000.0001) %MON obc_N_vVel_sd                =  -1.7575820968324E-27
(PID.TID 0000.0001) %MON obc_N_vVel_Int               =  -1.0326384145738E+01
(PID.TID 0000.0001) // =======================================================
(PID.TID 0000.0001) // End OBCS MONITOR field statistics
(PID.TID 0000.0001) // =======================================================
 cg2d: Sum(rhs),rhsMax =   3.00896572054860E+00  4.53044244677521E+02
(PID.TID 0000.0001)      cg2d_init_res =   3.41484718081385E-06
(PID.TID 0000.0001)      cg2d_iters(min,last) =      -1      75
(PID.TID 0000.0001)      cg2d_last_res =   8.21213705561649E-12
(PID.TID 0000.0001) // =======================================================
(PID.TID 0000.0001) // Begin MONITOR dynamic field statistics
(PID.TID 0000.0001) // =======================================================
(PID.TID 0000.0001) %MON time_tsnumber                =                  1139
(PID.TID 0000.0001) %MON time_secondsf                =   1.1390000000000E+05
(PID.TID 0000.0001) %MON dynstat_eta_max              =   5.7986237651863E+00
(PID.TID 0000.0001) %MON dynstat_eta_min              =  -1.4171456495699E+01
(PID.TID 0000.0001) %MON dynstat_eta_mean             =  -2.5244344483824E+00
(PID.TID 0000.0001) %MON dynstat_eta_sd               =   4.9411807453918E+00
(PID.TID 0000.0001) %MON dynstat_eta_del2             =   1.9058659344089E-01
(PID.TID 0000.0001) %MON dynstat_uvel_max             =   6.3005489082357E-03
(PID.TID 0000.0001) %MON dynstat_uvel_min             =  -2.9583664228187E-02
(PID.TID 0000.0001) %MON dynstat_uvel_mean            =   1.1036037679301E-09
(PID.TID 0000.0001) %MON dynstat_uvel_sd              =   8.0392163774199E-04
(PID.TID 0000.0001) %MON dynstat_uvel_del2            =   1.2312716500894E-06
(PID.TID 0000.0001) %MON dynstat_vvel_max             =   2.0771627693573E-02
(PID.TID 0000.0001) %MON dynstat_vvel_min             =  -7.7006802631310E-03
(PID.TID 0000.0001) %MON dynstat_vvel_mean            =  -1.1589055597366E-07
(PID.TID 0000.0001) %MON dynstat_vvel_sd              =   3.9388652219556E-04
(PID.TID 0000.0001) %MON dynstat_vvel_del2            =   1.0425903061783E-06
(PID.TID 0000.0001) %MON dynstat_wvel_max             =   1.1965181721735E-03
(PID.TID 0000.0001) %MON dynstat_wvel_min             =  -1.4180085511606E-03
(PID.TID 0000.0001) %MON dynstat_wvel_mean            =   4.1065984407466E-10
(PID.TID 0000.0001) %MON dynstat_wvel_sd              =   1.9580322366917E-05
(PID.TID 0000.0001) %MON dynstat_wvel_del2            =   8.1296994909635E-08
(PID.TID 0000.0001) %MON dynstat_theta_max            =   1.2000000000000E+00
(PID.TID 0000.0001) %MON dynstat_theta_min            =  -1.0000000000000E+00
(PID.TID 0000.0001) %MON dynstat_theta_mean           =   5.6514277368541E-01
(PID.TID 0000.0001) %MON dynstat_theta_sd             =   8.4894513114003E-01
(PID.TID 0000.0001) %MON dynstat_theta_del2           =   2.9241038390742E-06
(PID.TID 0000.0001) %MON dynstat_salt_max             =   3.4700000000000E+01
(PID.TID 0000.0001) %MON dynstat_salt_min             =   3.4000000000000E+01
(PID.TID 0000.0001) %MON dynstat_salt_mean            =   3.4497971103668E+01
(PID.TID 0000.0001) %MON dynstat_salt_sd              =   2.7011479464787E-01
(PID.TID 0000.0001) %MON dynstat_salt_del2            =   1.1563271005105E-06
(PID.TID 0000.0001) %MON advcfl_uvel_max              =   2.9583664228187E-03
(PID.TID 0000.0001) %MON advcfl_vvel_max              =   2.0771627693573E-03
(PID.TID 0000.0001) %MON advcfl_wvel_max              =   7.0900427558031E-03
(PID.TID 0000.0001) %MON advcfl_W_hf_max              =   7.0900427558031E-03
(PID.TID 0000.0001) %MON pe_b_mean                    =  -6.8207210576085E-01
(PID.TID 0000.0001) %MON ke_max                       =   3.4093642188928E-04
(PID.TID 0000.0001) %MON ke_mean                      =   3.9464134915586E-07
(PID.TID 0000.0001) %MON ke_vol                       =   4.6183048223607E+12
(PID.TID 0000.0001) // =======================================================
(PID.TID 0000.0001) // End MONITOR dynamic field statistics
(PID.TID 0000.0001) // =======================================================
(PID.TID 0000.0001) // =======================================================
(PID.TID 0000.0001) // Begin OBCS MONITOR field statistics
(PID.TID 0000.0001) // =======================================================
(PID.TID 0000.0001) %MON obc_N_vVel_max               =  -1.4876090398897E-07
(PID.TID 0000.0001) %MON obc_N_vVel_min               =  -1.4876090398897E-07
(PID.TID 0000.0001) %MON obc_N_vVel_mean              =  -1.4876090398897E-07
(PID.TID 0000.0001) %MON obc_N_vVel_sd                =   1.7852165294700E-14
(PID.TID 0000.0001) %MON obc_N_vVel_Int               =  -9.8182196632719E+00
(PID.TID 0000.0001) // =======================================================
(PID.TID 0000.0001) // End OBCS MONITOR field statistics
(PID.TID 0000.0001) // =======================================================
 cg2d: Sum(rhs),rhsMax =   3.00895837108689E+00  4.53044232863824E+02
(PID.TID 0000.0001)      cg2d_init_res =   3.41803461626809E-06
(PID.TID 0000.0001)      cg2d_iters(min,last) =      -1      75
(PID.TID 0000.0001)      cg2d_last_res =   8.22823151217121E-12
(PID.TID 0000.0001) // =======================================================
(PID.TID 0000.0001) // Begin MONITOR dynamic field statistics
(PID.TID 0000.0001) // =======================================================
(PID.TID 0000.0001) %MON time_tsnumber                =                  1140
(PID.TID 0000.0001) %MON time_secondsf                =   1.1400000000000E+05
(PID.TID 0000.0001) %MON dynstat_eta_max              =   5.7986267436235E+00
(PID.TID 0000.0001) %MON dynstat_eta_min              =  -1.4171443234521E+01
(PID.TID 0000.0001) %MON dynstat_eta_mean             =  -2.5244282165708E+00
(PID.TID 0000.0001) %MON dynstat_eta_sd               =   4.9411789509092E+00
(PID.TID 0000.0001) %MON dynstat_eta_del2             =   1.9058661123280E-01
(PID.TID 0000.0001) %MON dynstat_uvel_max             =   6.3160865483471E-03
(PID.TID 0000.0001) %MON dynstat_uvel_min             =  -2.9652933554775E-02
(PID.TID 0000.0001) %MON dynstat_uvel_mean            =   1.0448723475318E-09
(PID.TID 0000.0001) %MON dynstat_uvel_sd              =   8.0590948098660E-04
(PID.TID 0000.0001) %MON dynstat_uvel_del2            =   1.2342816945903E-06
(PID.TID 0000.0001) %MON dynstat_vvel_max             =   2.0810790649254E-02
(PID.TID 0000.0001) %MON dynstat_vvel_min             =  -7.7168998602684E-03
(PID.TID 0000.0001) %MON dynstat_vvel_mean            =  -1.0485028542500E-07
(PID.TID 0000.0001) %MON dynstat_vvel_sd              =   3.9467538825924E-04
(PID.TID 0000.0001) %MON dynstat_vvel_del2            =   1.0447689974969E-06
(PID.TID 0000.0001) %MON dynstat_wvel_max             =   1.1992529149599E-03
(PID.TID 0000.0001) %MON dynstat_wvel_min             =  -1.4220409633660E-03
(PID.TID 0000.0001) %MON dynstat_wvel_mean            =   4.2121598614700E-10
(PID.TID 0000.0001) %MON dynstat_wvel_sd              =   1.9612648409435E-05
(PID.TID 0000.0001) %MON dynstat_wvel_del2            =   8.1369474582979E-08
(PID.TID 0000.0001) %MON dynstat_theta_max            =   1.2000000000000E+00
(PID.TID 0000.0001) %MON dynstat_theta_min            =  -1.0000000000000E+00
(PID.TID 0000.0001) %MON dynstat_theta_mean           =   5.6514209821269E-01
(PID.TID 0000.0001) %MON dynstat_theta_sd             =   8.4894483483000E-01
(PID.TID 0000.0001) %MON dynstat_theta_del2           =   2.9301182803071E-06
(PID.TID 0000.0001) %MON dynstat_salt_max             =   3.4700000000000E+01
(PID.TID 0000.0001) %MON dynstat_salt_min             =   3.4000000000000E+01
(PID.TID 0000.0001) %MON dynstat_salt_mean            =   3.4497970833971E+01
(PID.TID 0000.0001) %MON dynstat_salt_sd              =   2.7011468296890E-01
(PID.TID 0000.0001) %MON dynstat_salt_del2            =   1.1587141864379E-06
(PID.TID 0000.0001) %MON advcfl_uvel_max              =   2.9652933554775E-03
(PID.TID 0000.0001) %MON advcfl_vvel_max              =   2.0810790649254E-03
(PID.TID 0000.0001) %MON advcfl_wvel_max              =   7.1102048168300E-03
(PID.TID 0000.0001) %MON advcfl_W_hf_max              =   7.1102048168300E-03
(PID.TID 0000.0001) %MON pe_b_mean                    =  -6.8207027649992E-01
(PID.TID 0000.0001) %MON ke_max                       =   3.4280305455457E-04
(PID.TID 0000.0001) %MON ke_mean                      =   3.9652234133333E-07
(PID.TID 0000.0001) %MON ke_vol                       =   4.6183048593766E+12
(PID.TID 0000.0001) // =======================================================
(PID.TID 0000.0001) // End MONITOR dynamic field statistics
(PID.TID 0000.0001) // =======================================================
(PID.TID 0000.0001) // =======================================================
(PID.TID 0000.0001) // Begin OBCS MONITOR field statistics
(PID.TID 0000.0001) // =======================================================
(PID.TID 0000.0001) %MON obc_N_vVel_max               =  -1.3921306457460E-07
(PID.TID 0000.0001) %MON obc_N_vVel_min               =  -1.3921306457460E-07
(PID.TID 0000.0001) %MON obc_N_vVel_mean              =  -1.3921306457460E-07
(PID.TID 0000.0001) %MON obc_N_vVel_sd                =  -1.6408306828597E-28
(PID.TID 0000.0001) %MON obc_N_vVel_Int               =  -9.1880622619235E+00
(PID.TID 0000.0001) // =======================================================
(PID.TID 0000.0001) // End OBCS MONITOR field statistics
(PID.TID 0000.0001) // =======================================================
 cg2d: Sum(rhs),rhsMax =   3.00895101794654E+00  4.53044221911273E+02
(PID.TID 0000.0001)      cg2d_init_res =   3.42134056877725E-06
(PID.TID 0000.0001)      cg2d_iters(min,last) =      -1      75
(PID.TID 0000.0001)      cg2d_last_res =   8.24389167501282E-12
(PID.TID 0000.0001) // =======================================================
(PID.TID 0000.0001) // Begin MONITOR dynamic field statistics
(PID.TID 0000.0001) // =======================================================
(PID.TID 0000.0001) %MON time_tsnumber                =                  1141
(PID.TID 0000.0001) %MON time_secondsf                =   1.1410000000000E+05
(PID.TID 0000.0001) %MON dynstat_eta_max              =   5.7986296991408E+00
(PID.TID 0000.0001) %MON dynstat_eta_min              =  -1.4171429977640E+01
(PID.TID 0000.0001) %MON dynstat_eta_mean             =  -2.5244219864717E+00
(PID.TID 0000.0001) %MON dynstat_eta_sd               =   4.9411771591966E+00
(PID.TID 0000.0001) %MON dynstat_eta_del2             =   1.9058662908587E-01
(PID.TID 0000.0001) %MON dynstat_uvel_max             =   6.3316577142096E-03
(PID.TID 0000.0001) %MON dynstat_uvel_min             =  -2.9722276530526E-02
(PID.TID 0000.0001) %MON dynstat_uvel_mean            =   9.9177836021569E-10
(PID.TID 0000.0001) %MON dynstat_uvel_sd              =   8.0790134850038E-04
(PID.TID 0000.0001) %MON dynstat_uvel_del2            =   1.2372989093080E-06
(PID.TID 0000.0001) %MON dynstat_vvel_max             =   2.0849978639445E-02
(PID.TID 0000.0001) %MON dynstat_vvel_min             =  -7.7331413569706E-03
(PID.TID 0000.0001) %MON dynstat_vvel_mean            =  -9.2147944376219E-08
(PID.TID 0000.0001) %MON dynstat_vvel_sd              =   3.9546711487246E-04
(PID.TID 0000.0001) %MON dynstat_vvel_del2            =   1.0469630021053E-06
(PID.TID 0000.0001) %MON dynstat_wvel_max             =   1.2019913192915E-03
(PID.TID 0000.0001) %MON dynstat_wvel_min             =  -1.4260806822664E-03
(PID.TID 0000.0001) %MON dynstat_wvel_mean            =   4.3019592795281E-10
(PID.TID 0000.0001) %MON dynstat_wvel_sd              =   1.9650120667869E-05
(PID.TID 0000.0001) %MON dynstat_wvel_del2            =   8.1471682183551E-08
(PID.TID 0000.0001) %MON dynstat_theta_max            =   1.2000000000000E+00
(PID.TID 0000.0001) %MON dynstat_theta_min            =  -1.0000000000000E+00
(PID.TID 0000.0001) %MON dynstat_theta_mean           =   5.6514142155223E-01
(PID.TID 0000.0001) %MON dynstat_theta_sd             =   8.4894453790705E-01
(PID.TID 0000.0001) %MON dynstat_theta_del2           =   2.9361261999723E-06
(PID.TID 0000.0001) %MON dynstat_salt_max             =   3.4700000000000E+01
(PID.TID 0000.0001) %MON dynstat_salt_min             =   3.4000000000000E+01
(PID.TID 0000.0001) %MON dynstat_salt_mean            =   3.4497970563797E+01
(PID.TID 0000.0001) %MON dynstat_salt_sd              =   2.7011457105529E-01
(PID.TID 0000.0001) %MON dynstat_salt_del2            =   1.1611006569188E-06
(PID.TID 0000.0001) %MON advcfl_uvel_max              =   2.9722276530526E-03
(PID.TID 0000.0001) %MON advcfl_vvel_max              =   2.0849978639445E-03
(PID.TID 0000.0001) %MON advcfl_wvel_max              =   7.1304034113320E-03
(PID.TID 0000.0001) %MON advcfl_W_hf_max              =   7.1304034113320E-03
(PID.TID 0000.0001) %MON pe_b_mean                    =  -6.8206844672183E-01
(PID.TID 0000.0001) %MON ke_max                       =   3.4467831777307E-04
(PID.TID 0000.0001) %MON ke_mean                      =   3.9841215431089E-07
(PID.TID 0000.0001) %MON ke_vol                       =   4.6183048963936E+12
(PID.TID 0000.0001) // =======================================================
(PID.TID 0000.0001) // End MONITOR dynamic field statistics
(PID.TID 0000.0001) // =======================================================
(PID.TID 0000.0001) // =======================================================
(PID.TID 0000.0001) // Begin OBCS MONITOR field statistics
(PID.TID 0000.0001) // =======================================================
(PID.TID 0000.0001) %MON obc_N_vVel_max               =  -1.2794718412241E-07
(PID.TID 0000.0001) %MON obc_N_vVel_min               =  -1.2794718412242E-07
(PID.TID 0000.0001) %MON obc_N_vVel_mean              =  -1.2794718412241E-07
(PID.TID 0000.0001) %MON obc_N_vVel_sd                =   2.6526664461578E-14
(PID.TID 0000.0001) %MON obc_N_vVel_Int               =  -8.4445141520793E+00
(PID.TID 0000.0001) // =======================================================
(PID.TID 0000.0001) // End OBCS MONITOR field statistics
(PID.TID 0000.0001) // =======================================================
 cg2d: Sum(rhs),rhsMax =   3.00894366336542E+00  4.53044211792221E+02
(PID.TID 0000.0001)      cg2d_init_res =   3.42482357255514E-06
(PID.TID 0000.0001)      cg2d_iters(min,last) =      -1      75
(PID.TID 0000.0001)      cg2d_last_res =   8.25914608671099E-12
(PID.TID 0000.0001) // =======================================================
(PID.TID 0000.0001) // Begin MONITOR dynamic field statistics
(PID.TID 0000.0001) // =======================================================
(PID.TID 0000.0001) %MON time_tsnumber                =                  1142
(PID.TID 0000.0001) %MON time_secondsf                =   1.1420000000000E+05
(PID.TID 0000.0001) %MON dynstat_eta_max              =   5.7986326291002E+00
(PID.TID 0000.0001) %MON dynstat_eta_min              =  -1.4171416727918E+01
(PID.TID 0000.0001) %MON dynstat_eta_mean             =  -2.5244157598085E+00
(PID.TID 0000.0001) %MON dynstat_eta_sd               =   4.9411753706848E+00
(PID.TID 0000.0001) %MON dynstat_eta_del2             =   1.9058664700164E-01
(PID.TID 0000.0001) %MON dynstat_uvel_max             =   6.3472624351135E-03
(PID.TID 0000.0001) %MON dynstat_uvel_min             =  -2.9791692870055E-02
(PID.TID 0000.0001) %MON dynstat_uvel_mean            =   9.4524931946558E-10
(PID.TID 0000.0001) %MON dynstat_uvel_sd              =   8.0989724856752E-04
(PID.TID 0000.0001) %MON dynstat_uvel_del2            =   1.2403233028284E-06
(PID.TID 0000.0001) %MON dynstat_vvel_max             =   2.0889191542435E-02
(PID.TID 0000.0001) %MON dynstat_vvel_min             =  -7.7494047327820E-03
(PID.TID 0000.0001) %MON dynstat_vvel_mean            =  -7.7955544805209E-08
(PID.TID 0000.0001) %MON dynstat_vvel_sd              =   3.9626173908275E-04
(PID.TID 0000.0001) %MON dynstat_vvel_del2            =   1.0491725457066E-06
(PID.TID 0000.0001) %MON dynstat_wvel_max             =   1.2047333822558E-03
(PID.TID 0000.0001) %MON dynstat_wvel_min             =  -1.4301276928795E-03
(PID.TID 0000.0001) %MON dynstat_wvel_mean            =   4.3748646229589E-10
(PID.TID 0000.0001) %MON dynstat_wvel_sd              =   1.9692912104154E-05
(PID.TID 0000.0001) %MON dynstat_wvel_del2            =   8.1606045409189E-08
(PID.TID 0000.0001) %MON dynstat_theta_max            =   1.2000000000000E+00
(PID.TID 0000.0001) %MON dynstat_theta_min            =  -1.0000000000000E+00
(PID.TID 0000.0001) %MON dynstat_theta_mean           =   5.6514074370296E-01
(PID.TID 0000.0001) %MON dynstat_theta_sd             =   8.4894424036678E-01
(PID.TID 0000.0001) %MON dynstat_theta_del2           =   2.9421271204145E-06
(PID.TID 0000.0001) %MON dynstat_salt_max             =   3.4700000000000E+01
(PID.TID 0000.0001) %MON dynstat_salt_min             =   3.4000000000000E+01
(PID.TID 0000.0001) %MON dynstat_salt_mean            =   3.4497970293146E+01
(PID.TID 0000.0001) %MON dynstat_salt_sd              =   2.7011445890552E-01
(PID.TID 0000.0001) %MON dynstat_salt_del2            =   1.1634864166215E-06
(PID.TID 0000.0001) %MON advcfl_uvel_max              =   2.9791692870055E-03
(PID.TID 0000.0001) %MON advcfl_vvel_max              =   2.0889191542435E-03
(PID.TID 0000.0001) %MON advcfl_wvel_max              =   7.1506384643977E-03
(PID.TID 0000.0001) %MON advcfl_W_hf_max              =   7.1506384643977E-03
(PID.TID 0000.0001) %MON pe_b_mean                    =  -6.8206661673114E-01
(PID.TID 0000.0001) %MON ke_max                       =   3.4656224211868E-04
(PID.TID 0000.0001) %MON ke_mean                      =   4.0031083981747E-07
(PID.TID 0000.0001) %MON ke_vol                       =   4.6183049334004E+12
(PID.TID 0000.0001) // =======================================================
(PID.TID 0000.0001) // End MONITOR dynamic field statistics
(PID.TID 0000.0001) // =======================================================
(PID.TID 0000.0001) // =======================================================
(PID.TID 0000.0001) // Begin OBCS MONITOR field statistics
(PID.TID 0000.0001) // =======================================================
(PID.TID 0000.0001) %MON obc_N_vVel_max               =  -1.1511680523062E-07
(PID.TID 0000.0001) %MON obc_N_vVel_min               =  -1.1511680523062E-07
(PID.TID 0000.0001) %MON obc_N_vVel_mean              =  -1.1511680523062E-07
(PID.TID 0000.0001) %MON obc_N_vVel_sd                =   3.0276333527473E-14
(PID.TID 0000.0001) %MON obc_N_vVel_Int               =  -7.5977091452210E+00
(PID.TID 0000.0001) // =======================================================
(PID.TID 0000.0001) // End OBCS MONITOR field statistics
(PID.TID 0000.0001) // =======================================================
 cg2d: Sum(rhs),rhsMax =   3.00893630942577E+00  4.53044202467599E+02
(PID.TID 0000.0001)      cg2d_init_res =   3.42853555080442E-06
(PID.TID 0000.0001)      cg2d_iters(min,last) =      -1      75
(PID.TID 0000.0001)      cg2d_last_res =   8.27401092850826E-12
(PID.TID 0000.0001) // =======================================================
(PID.TID 0000.0001) // Begin MONITOR dynamic field statistics
(PID.TID 0000.0001) // =======================================================
(PID.TID 0000.0001) %MON time_tsnumber                =                  1143
(PID.TID 0000.0001) %MON time_secondsf                =   1.1430000000000E+05
(PID.TID 0000.0001) %MON dynstat_eta_max              =   5.7986355312184E+00
(PID.TID 0000.0001) %MON dynstat_eta_min              =  -1.4171403487834E+01
(PID.TID 0000.0001) %MON dynstat_eta_mean             =  -2.5244095381104E+00
(PID.TID 0000.0001) %MON dynstat_eta_sd               =   4.9411735857201E+00
(PID.TID 0000.0001) %MON dynstat_eta_del2             =   1.9058666498130E-01
(PID.TID 0000.0001) %MON dynstat_uvel_max             =   6.3629007399602E-03
(PID.TID 0000.0001) %MON dynstat_uvel_min             =  -2.9861182286928E-02
(PID.TID 0000.0001) %MON dynstat_uvel_mean            =   9.0612543681389E-10
(PID.TID 0000.0001) %MON dynstat_uvel_sd              =   8.1189718969601E-04
(PID.TID 0000.0001) %MON dynstat_uvel_del2            =   1.2433548848718E-06
(PID.TID 0000.0001) %MON dynstat_vvel_max             =   2.0928429234035E-02
(PID.TID 0000.0001) %MON dynstat_vvel_min             =  -7.7656899693617E-03
(PID.TID 0000.0001) %MON dynstat_vvel_mean            =  -6.2465365747789E-08
(PID.TID 0000.0001) %MON dynstat_vvel_sd              =   3.9705922372996E-04
(PID.TID 0000.0001) %MON dynstat_vvel_del2            =   1.0513972811188E-06
(PID.TID 0000.0001) %MON dynstat_wvel_max             =   1.2074791009749E-03
(PID.TID 0000.0001) %MON dynstat_wvel_min             =  -1.4341819798067E-03
(PID.TID 0000.0001) %MON dynstat_wvel_mean            =   4.4299642829884E-10
(PID.TID 0000.0001) %MON dynstat_wvel_sd              =   1.9740917986838E-05
(PID.TID 0000.0001) %MON dynstat_wvel_del2            =   8.1773418757064E-08
(PID.TID 0000.0001) %MON dynstat_theta_max            =   1.2000000000000E+00
(PID.TID 0000.0001) %MON dynstat_theta_min            =  -1.0000000000000E+00
(PID.TID 0000.0001) %MON dynstat_theta_mean           =   5.6514006466382E-01
(PID.TID 0000.0001) %MON dynstat_theta_sd             =   8.4894394220437E-01
(PID.TID 0000.0001) %MON dynstat_theta_del2           =   2.9481213332345E-06
(PID.TID 0000.0001) %MON dynstat_salt_max             =   3.4700000000000E+01
(PID.TID 0000.0001) %MON dynstat_salt_min             =   3.4000000000000E+01
(PID.TID 0000.0001) %MON dynstat_salt_mean            =   3.4497970022018E+01
(PID.TID 0000.0001) %MON dynstat_salt_sd              =   2.7011434651822E-01
(PID.TID 0000.0001) %MON dynstat_salt_del2            =   1.1658715481377E-06
(PID.TID 0000.0001) %MON advcfl_uvel_max              =   2.9861182286928E-03
(PID.TID 0000.0001) %MON advcfl_vvel_max              =   2.0928429234035E-03
(PID.TID 0000.0001) %MON advcfl_wvel_max              =   7.1709098990336E-03
(PID.TID 0000.0001) %MON advcfl_W_hf_max              =   7.1709098990336E-03
(PID.TID 0000.0001) %MON pe_b_mean                    =  -6.8206478678978E-01
(PID.TID 0000.0001) %MON ke_max                       =   3.4845485826607E-04
(PID.TID 0000.0001) %MON ke_mean                      =   4.0221842055048E-07
(PID.TID 0000.0001) %MON ke_vol                       =   4.6183049703867E+12
(PID.TID 0000.0001) // =======================================================
(PID.TID 0000.0001) // End MONITOR dynamic field statistics
(PID.TID 0000.0001) // =======================================================
(PID.TID 0000.0001) // =======================================================
(PID.TID 0000.0001) // Begin OBCS MONITOR field statistics
(PID.TID 0000.0001) // =======================================================
(PID.TID 0000.0001) %MON obc_N_vVel_max               =  -1.0089664459398E-07
(PID.TID 0000.0001) %MON obc_N_vVel_min               =  -1.0089664459398E-07
(PID.TID 0000.0001) %MON obc_N_vVel_mean              =  -1.0089664459398E-07
(PID.TID 0000.0001) %MON obc_N_vVel_sd                =  -9.4663308626521E-30
(PID.TID 0000.0001) %MON obc_N_vVel_Int               =  -6.6591785432029E+00
(PID.TID 0000.0001) // =======================================================
(PID.TID 0000.0001) // End OBCS MONITOR field statistics
(PID.TID 0000.0001) // =======================================================
 cg2d: Sum(rhs),rhsMax =   3.00892895802336E+00  4.53044193887828E+02
(PID.TID 0000.0001)      cg2d_init_res =   3.43251290106584E-06
(PID.TID 0000.0001)      cg2d_iters(min,last) =      -1      75
(PID.TID 0000.0001)      cg2d_last_res =   8.28853104645366E-12
(PID.TID 0000.0001) // =======================================================
(PID.TID 0000.0001) // Begin MONITOR dynamic field statistics
(PID.TID 0000.0001) // =======================================================
(PID.TID 0000.0001) %MON time_tsnumber                =                  1144
(PID.TID 0000.0001) %MON time_secondsf                =   1.1440000000000E+05
(PID.TID 0000.0001) %MON dynstat_eta_max              =   5.7986384035883E+00
(PID.TID 0000.0001) %MON dynstat_eta_min              =  -1.4171390259444E+01
(PID.TID 0000.0001) %MON dynstat_eta_mean             =  -2.5244033226915E+00
(PID.TID 0000.0001) %MON dynstat_eta_sd               =   4.9411718045603E+00
(PID.TID 0000.0001) %MON dynstat_eta_del2             =   1.9058668302573E-01
(PID.TID 0000.0001) %MON dynstat_uvel_max             =   6.3785726573169E-03
(PID.TID 0000.0001) %MON dynstat_uvel_min             =  -2.9930744493744E-02
(PID.TID 0000.0001) %MON dynstat_uvel_mean            =   8.7514933496351E-10
(PID.TID 0000.0001) %MON dynstat_uvel_sd              =   8.1390118061165E-04
(PID.TID 0000.0001) %MON dynstat_uvel_del2            =   1.2463936662777E-06
(PID.TID 0000.0001) %MON dynstat_vvel_max             =   2.0967691587630E-02
(PID.TID 0000.0001) %MON dynstat_vvel_min             =  -7.7819970494621E-03
(PID.TID 0000.0001) %MON dynstat_vvel_mean            =  -4.5887395803251E-08
(PID.TID 0000.0001) %MON dynstat_vvel_sd              =   3.9785946026148E-04
(PID.TID 0000.0001) %MON dynstat_vvel_del2            =   1.0536362994178E-06
(PID.TID 0000.0001) %MON dynstat_wvel_max             =   1.2102284725622E-03
(PID.TID 0000.0001) %MON dynstat_wvel_min             =  -1.4382435273225E-03
(PID.TID 0000.0001) %MON dynstat_wvel_mean            =   4.4665846177910E-10
(PID.TID 0000.0001) %MON dynstat_wvel_sd              =   1.9793761840412E-05
(PID.TID 0000.0001) %MON dynstat_wvel_del2            =   8.1973003095779E-08
(PID.TID 0000.0001) %MON dynstat_theta_max            =   1.2000000000000E+00
(PID.TID 0000.0001) %MON dynstat_theta_min            =  -1.0000000000000E+00
(PID.TID 0000.0001) %MON dynstat_theta_mean           =   5.6513938443375E-01
(PID.TID 0000.0001) %MON dynstat_theta_sd             =   8.4894364341426E-01
(PID.TID 0000.0001) %MON dynstat_theta_del2           =   2.9541098908281E-06
(PID.TID 0000.0001) %MON dynstat_salt_max             =   3.4700000000000E+01
(PID.TID 0000.0001) %MON dynstat_salt_min             =   3.4000000000000E+01
(PID.TID 0000.0001) %MON dynstat_salt_mean            =   3.4497969750413E+01
(PID.TID 0000.0001) %MON dynstat_salt_sd              =   2.7011423389147E-01
(PID.TID 0000.0001) %MON dynstat_salt_del2            =   1.1682563217870E-06
(PID.TID 0000.0001) %MON advcfl_uvel_max              =   2.9930744493744E-03
(PID.TID 0000.0001) %MON advcfl_vvel_max              =   2.0967691587630E-03
(PID.TID 0000.0001) %MON advcfl_wvel_max              =   7.1912176366127E-03
(PID.TID 0000.0001) %MON advcfl_W_hf_max              =   7.1912176366127E-03
(PID.TID 0000.0001) %MON pe_b_mean                    =  -6.8206295711346E-01
(PID.TID 0000.0001) %MON ke_max                       =   3.5035619699715E-04
(PID.TID 0000.0001) %MON ke_mean                      =   4.0413489099353E-07
(PID.TID 0000.0001) %MON ke_vol                       =   4.6183050073436E+12
(PID.TID 0000.0001) // =======================================================
(PID.TID 0000.0001) // End MONITOR dynamic field statistics
(PID.TID 0000.0001) // =======================================================
(PID.TID 0000.0001) // =======================================================
(PID.TID 0000.0001) // Begin OBCS MONITOR field statistics
(PID.TID 0000.0001) // =======================================================
(PID.TID 0000.0001) %MON obc_N_vVel_max               =  -8.5480316958542E-08
(PID.TID 0000.0001) %MON obc_N_vVel_min               =  -8.5480316958543E-08
(PID.TID 0000.0001) %MON obc_N_vVel_mean              =  -8.5480316958542E-08
(PID.TID 0000.0001) %MON obc_N_vVel_sd                =   1.6945364248090E-14
(PID.TID 0000.0001) %MON obc_N_vVel_Int               =  -5.6417009192638E+00
(PID.TID 0000.0001) // =======================================================
(PID.TID 0000.0001) // End OBCS MONITOR field statistics
(PID.TID 0000.0001) // =======================================================
 cg2d: Sum(rhs),rhsMax =   3.00892161083609E+00  4.53044185994179E+02
(PID.TID 0000.0001)      cg2d_init_res =   3.43677818874308E-06
(PID.TID 0000.0001)      cg2d_iters(min,last) =      -1      75
(PID.TID 0000.0001)      cg2d_last_res =   8.30276036272948E-12
(PID.TID 0000.0001) // =======================================================
(PID.TID 0000.0001) // Begin MONITOR dynamic field statistics
(PID.TID 0000.0001) // =======================================================
(PID.TID 0000.0001) %MON time_tsnumber                =                  1145
(PID.TID 0000.0001) %MON time_secondsf                =   1.1450000000000E+05
(PID.TID 0000.0001) %MON dynstat_eta_max              =   5.7986412447009E+00
(PID.TID 0000.0001) %MON dynstat_eta_min              =  -1.4171377044348E+01
(PID.TID 0000.0001) %MON dynstat_eta_mean             =  -2.5243971146325E+00
(PID.TID 0000.0001) %MON dynstat_eta_sd               =   4.9411700273711E+00
(PID.TID 0000.0001) %MON dynstat_eta_del2             =   1.9058670113550E-01
(PID.TID 0000.0001) %MON dynstat_uvel_max             =   6.3942782154083E-03
(PID.TID 0000.0001) %MON dynstat_uvel_min             =  -3.0000379202417E-02
(PID.TID 0000.0001) %MON dynstat_uvel_mean            =   8.5295283387701E-10
(PID.TID 0000.0001) %MON dynstat_uvel_sd              =   8.1590923024522E-04
(PID.TID 0000.0001) %MON dynstat_uvel_del2            =   1.2494396589708E-06
(PID.TID 0000.0001) %MON dynstat_vvel_max             =   2.1006978474786E-02
(PID.TID 0000.0001) %MON dynstat_vvel_min             =  -7.7983259565775E-03
(PID.TID 0000.0001) %MON dynstat_vvel_mean            =  -2.8446507365584E-08
(PID.TID 0000.0001) %MON dynstat_vvel_sd              =   3.9866227525219E-04
(PID.TID 0000.0001) %MON dynstat_vvel_del2            =   1.0558881680594E-06
(PID.TID 0000.0001) %MON dynstat_wvel_max             =   1.2129814941473E-03
(PID.TID 0000.0001) %MON dynstat_wvel_min             =  -1.4423123193373E-03
(PID.TID 0000.0001) %MON dynstat_wvel_mean            =   4.4842990199062E-10
(PID.TID 0000.0001) %MON dynstat_wvel_sd              =   1.9850816241512E-05
(PID.TID 0000.0001) %MON dynstat_wvel_del2            =   8.2202351871084E-08
(PID.TID 0000.0001) %MON dynstat_theta_max            =   1.2000000000000E+00
(PID.TID 0000.0001) %MON dynstat_theta_min            =  -1.0000000000000E+00
(PID.TID 0000.0001) %MON dynstat_theta_mean           =   5.6513870301160E-01
(PID.TID 0000.0001) %MON dynstat_theta_sd             =   8.4894334399254E-01
(PID.TID 0000.0001) %MON dynstat_theta_del2           =   2.9600945506490E-06
(PID.TID 0000.0001) %MON dynstat_salt_max             =   3.4700000000000E+01
(PID.TID 0000.0001) %MON dynstat_salt_min             =   3.4000000000000E+01
(PID.TID 0000.0001) %MON dynstat_salt_mean            =   3.4497969478329E+01
(PID.TID 0000.0001) %MON dynstat_salt_sd              =   2.7011412102417E-01
(PID.TID 0000.0001) %MON dynstat_salt_del2            =   1.1706411910301E-06
(PID.TID 0000.0001) %MON advcfl_uvel_max              =   3.0000379202417E-03
(PID.TID 0000.0001) %MON advcfl_vvel_max              =   2.1006978474786E-03
(PID.TID 0000.0001) %MON advcfl_wvel_max              =   7.2115615966867E-03
(PID.TID 0000.0001) %MON advcfl_W_hf_max              =   7.2115615966867E-03
(PID.TID 0000.0001) %MON pe_b_mean                    =  -6.8206112786858E-01
(PID.TID 0000.0001) %MON ke_max                       =   3.5226628920300E-04
(PID.TID 0000.0001) %MON ke_mean                      =   4.0606021971645E-07
(PID.TID 0000.0001) %MON ke_vol                       =   4.6183050442632E+12
(PID.TID 0000.0001) // =======================================================
(PID.TID 0000.0001) // End MONITOR dynamic field statistics
(PID.TID 0000.0001) // =======================================================
(PID.TID 0000.0001) // =======================================================
(PID.TID 0000.0001) // Begin OBCS MONITOR field statistics
(PID.TID 0000.0001) // =======================================================
(PID.TID 0000.0001) %MON obc_N_vVel_max               =  -6.9077718026697E-08
(PID.TID 0000.0001) %MON obc_N_vVel_min               =  -6.9077718026697E-08
(PID.TID 0000.0001) %MON obc_N_vVel_mean              =  -6.9077718026697E-08
(PID.TID 0000.0001) %MON obc_N_vVel_sd                =   1.0877919644084E-14
(PID.TID 0000.0001) %MON obc_N_vVel_Int               =  -4.5591293897620E+00
(PID.TID 0000.0001) // =======================================================
(PID.TID 0000.0001) // End OBCS MONITOR field statistics
(PID.TID 0000.0001) // =======================================================
 cg2d: Sum(rhs),rhsMax =   3.00891426931033E+00  4.53044178718210E+02
(PID.TID 0000.0001)      cg2d_init_res =   3.44134059811142E-06
(PID.TID 0000.0001)      cg2d_iters(min,last) =      -1      75
(PID.TID 0000.0001)      cg2d_last_res =   8.31675237431329E-12
(PID.TID 0000.0001) // =======================================================
(PID.TID 0000.0001) // Begin MONITOR dynamic field statistics
(PID.TID 0000.0001) // =======================================================
(PID.TID 0000.0001) %MON time_tsnumber                =                  1146
(PID.TID 0000.0001) %MON time_secondsf                =   1.1460000000000E+05
(PID.TID 0000.0001) %MON dynstat_eta_max              =   5.7986440534924E+00
(PID.TID 0000.0001) %MON dynstat_eta_min              =  -1.4171363843676E+01
(PID.TID 0000.0001) %MON dynstat_eta_mean             =  -2.5243909147652E+00
(PID.TID 0000.0001) %MON dynstat_eta_sd               =   4.9411682542232E+00
(PID.TID 0000.0001) %MON dynstat_eta_del2             =   1.9058671931080E-01
(PID.TID 0000.0001) %MON dynstat_uvel_max             =   6.4100174420796E-03
(PID.TID 0000.0001) %MON dynstat_uvel_min             =  -3.0070086124476E-02
(PID.TID 0000.0001) %MON dynstat_uvel_mean            =   8.4004882734313E-10
(PID.TID 0000.0001) %MON dynstat_uvel_sd              =   8.1792134771343E-04
(PID.TID 0000.0001) %MON dynstat_uvel_del2            =   1.2524928758853E-06
(PID.TID 0000.0001) %MON dynstat_vvel_max             =   2.1046289765461E-02
(PID.TID 0000.0001) %MON dynstat_vvel_min             =  -7.8146766746903E-03
(PID.TID 0000.0001) %MON dynstat_vvel_mean            =  -1.0379411183166E-08
(PID.TID 0000.0001) %MON dynstat_vvel_sd              =   3.9946744029691E-04
(PID.TID 0000.0001) %MON dynstat_vvel_del2            =   1.0581509951254E-06
(PID.TID 0000.0001) %MON dynstat_wvel_max             =   1.2157381628273E-03
(PID.TID 0000.0001) %MON dynstat_wvel_min             =  -1.4463883394817E-03
(PID.TID 0000.0001) %MON dynstat_wvel_mean            =   4.4829354844310E-10
(PID.TID 0000.0001) %MON dynstat_wvel_sd              =   1.9911237468171E-05
(PID.TID 0000.0001) %MON dynstat_wvel_del2            =   8.2457469101710E-08
(PID.TID 0000.0001) %MON dynstat_theta_max            =   1.2000000000000E+00
(PID.TID 0000.0001) %MON dynstat_theta_min            =  -1.0000000000000E+00
(PID.TID 0000.0001) %MON dynstat_theta_mean           =   5.6513802039617E-01
(PID.TID 0000.0001) %MON dynstat_theta_sd             =   8.4894304393611E-01
(PID.TID 0000.0001) %MON dynstat_theta_del2           =   2.9660777039387E-06
(PID.TID 0000.0001) %MON dynstat_salt_max             =   3.4700000000000E+01
(PID.TID 0000.0001) %MON dynstat_salt_min             =   3.4000000000000E+01
(PID.TID 0000.0001) %MON dynstat_salt_mean            =   3.4497969205766E+01
(PID.TID 0000.0001) %MON dynstat_salt_sd              =   2.7011400791520E-01
(PID.TID 0000.0001) %MON dynstat_salt_del2            =   1.1730267730640E-06
(PID.TID 0000.0001) %MON advcfl_uvel_max              =   3.0070086124476E-03
(PID.TID 0000.0001) %MON advcfl_vvel_max              =   2.1046289765461E-03
(PID.TID 0000.0001) %MON advcfl_wvel_max              =   7.2319416974085E-03
(PID.TID 0000.0001) %MON advcfl_W_hf_max              =   7.2319416974085E-03
(PID.TID 0000.0001) %MON pe_b_mean                    =  -6.8205929916985E-01
(PID.TID 0000.0001) %MON ke_max                       =   3.5418516589163E-04
(PID.TID 0000.0001) %MON ke_mean                      =   4.0799435304620E-07
(PID.TID 0000.0001) %MON ke_vol                       =   4.6183050811391E+12
(PID.TID 0000.0001) // =======================================================
(PID.TID 0000.0001) // End MONITOR dynamic field statistics
(PID.TID 0000.0001) // =======================================================
(PID.TID 0000.0001) // =======================================================
(PID.TID 0000.0001) // Begin OBCS MONITOR field statistics
(PID.TID 0000.0001) // =======================================================
(PID.TID 0000.0001) %MON obc_N_vVel_max               =  -5.1912194834050E-08
(PID.TID 0000.0001) %MON obc_N_vVel_min               =  -5.1912194834052E-08
(PID.TID 0000.0001) %MON obc_N_vVel_mean              =  -5.1912194834050E-08
(PID.TID 0000.0001) %MON obc_N_vVel_sd                =   1.3930534185176E-14
(PID.TID 0000.0001) %MON obc_N_vVel_Int               =  -3.4262048590473E+00
(PID.TID 0000.0001) // =======================================================
(PID.TID 0000.0001) // End OBCS MONITOR field statistics
(PID.TID 0000.0001) // =======================================================
 cg2d: Sum(rhs),rhsMax =   3.00890693463852E+00  4.53044171983219E+02
(PID.TID 0000.0001)      cg2d_init_res =   3.44619595921190E-06
(PID.TID 0000.0001)      cg2d_iters(min,last) =      -1      75
(PID.TID 0000.0001)      cg2d_last_res =   8.33056199242650E-12
(PID.TID 0000.0001) // =======================================================
(PID.TID 0000.0001) // Begin MONITOR dynamic field statistics
(PID.TID 0000.0001) // =======================================================
(PID.TID 0000.0001) %MON time_tsnumber                =                  1147
(PID.TID 0000.0001) %MON time_secondsf                =   1.1470000000000E+05
(PID.TID 0000.0001) %MON dynstat_eta_max              =   5.7986468293206E+00
(PID.TID 0000.0001) %MON dynstat_eta_min              =  -1.4171350658067E+01
(PID.TID 0000.0001) %MON dynstat_eta_mean             =  -2.5243847236627E+00
(PID.TID 0000.0001) %MON dynstat_eta_sd               =   4.9411664850918E+00
(PID.TID 0000.0001) %MON dynstat_eta_del2             =   1.9058673755144E-01
(PID.TID 0000.0001) %MON dynstat_uvel_max             =   6.4257903646743E-03
(PID.TID 0000.0001) %MON dynstat_uvel_min             =  -3.0139864970876E-02
(PID.TID 0000.0001) %MON dynstat_uvel_mean            =   8.3682283567638E-10
(PID.TID 0000.0001) %MON dynstat_uvel_sd              =   8.1993754229433E-04
(PID.TID 0000.0001) %MON dynstat_uvel_del2            =   1.2555533308388E-06
(PID.TID 0000.0001) %MON dynstat_vvel_max             =   2.1085625328477E-02
(PID.TID 0000.0001) %MON dynstat_vvel_min             =  -7.8310491879936E-03
(PID.TID 0000.0001) %MON dynstat_vvel_mean            =   8.0685459810565E-09
(PID.TID 0000.0001) %MON dynstat_vvel_sd              =   4.0027468477097E-04
(PID.TID 0000.0001) %MON dynstat_vvel_del2            =   1.0604225174103E-06
(PID.TID 0000.0001) %MON dynstat_wvel_max             =   1.2184984757114E-03
(PID.TID 0000.0001) %MON dynstat_wvel_min             =  -1.4504715710805E-03
(PID.TID 0000.0001) %MON dynstat_wvel_mean            =   4.4625729556172E-10
(PID.TID 0000.0001) %MON dynstat_wvel_sd              =   1.9974012149255E-05
(PID.TID 0000.0001) %MON dynstat_wvel_del2            =   8.2732997919474E-08
(PID.TID 0000.0001) %MON dynstat_theta_max            =   1.2000000000000E+00
(PID.TID 0000.0001) %MON dynstat_theta_min            =  -1.0000000000000E+00
(PID.TID 0000.0001) %MON dynstat_theta_mean           =   5.6513733658631E-01
(PID.TID 0000.0001) %MON dynstat_theta_sd             =   8.4894274324341E-01
(PID.TID 0000.0001) %MON dynstat_theta_del2           =   2.9720622167427E-06
(PID.TID 0000.0001) %MON dynstat_salt_max             =   3.4700000000000E+01
(PID.TID 0000.0001) %MON dynstat_salt_min             =   3.4000000000000E+01
(PID.TID 0000.0001) %MON dynstat_salt_mean            =   3.4497968932724E+01
(PID.TID 0000.0001) %MON dynstat_salt_sd              =   2.7011389456422E-01
(PID.TID 0000.0001) %MON dynstat_salt_del2            =   1.1754138129274E-06
(PID.TID 0000.0001) %MON advcfl_uvel_max              =   3.0139864970876E-03
(PID.TID 0000.0001) %MON advcfl_vvel_max              =   2.1085625328477E-03
(PID.TID 0000.0001) %MON advcfl_wvel_max              =   7.2523578554023E-03
(PID.TID 0000.0001) %MON advcfl_W_hf_max              =   7.2523578554023E-03
(PID.TID 0000.0001) %MON pe_b_mean                    =  -6.8205747107887E-01
(PID.TID 0000.0001) %MON ke_max                       =   3.5611285818597E-04
(PID.TID 0000.0001) %MON ke_mean                      =   4.0993721992787E-07
(PID.TID 0000.0001) %MON ke_vol                       =   4.6183051179663E+12
(PID.TID 0000.0001) // =======================================================
(PID.TID 0000.0001) // End MONITOR dynamic field statistics
(PID.TID 0000.0001) // =======================================================
(PID.TID 0000.0001) // =======================================================
(PID.TID 0000.0001) // Begin OBCS MONITOR field statistics
(PID.TID 0000.0001) // =======================================================
(PID.TID 0000.0001) %MON obc_N_vVel_max               =  -3.4217495071655E-08
(PID.TID 0000.0001) %MON obc_N_vVel_min               =  -3.4217495071656E-08
(PID.TID 0000.0001) %MON obc_N_vVel_mean              =  -3.4217495071655E-08
(PID.TID 0000.0001) %MON obc_N_vVel_sd                =   7.1744807523382E-15
(PID.TID 0000.0001) %MON obc_N_vVel_Int               =  -2.2583546747292E+00
(PID.TID 0000.0001) // =======================================================
(PID.TID 0000.0001) // End OBCS MONITOR field statistics
(PID.TID 0000.0001) // =======================================================
 cg2d: Sum(rhs),rhsMax =   3.00889960774309E+00  4.53044165704989E+02
(PID.TID 0000.0001)      cg2d_init_res =   3.45132632106914E-06
(PID.TID 0000.0001)      cg2d_iters(min,last) =      -1      75
(PID.TID 0000.0001)      cg2d_last_res =   8.34425164758003E-12
(PID.TID 0000.0001) // =======================================================
(PID.TID 0000.0001) // Begin MONITOR dynamic field statistics
(PID.TID 0000.0001) // =======================================================
(PID.TID 0000.0001) %MON time_tsnumber                =                  1148
(PID.TID 0000.0001) %MON time_secondsf                =   1.1480000000000E+05
(PID.TID 0000.0001) %MON dynstat_eta_max              =   5.7986495720032E+00
(PID.TID 0000.0001) %MON dynstat_eta_min              =  -1.4171337487669E+01
(PID.TID 0000.0001) %MON dynstat_eta_mean             =  -2.5243785416297E+00
(PID.TID 0000.0001) %MON dynstat_eta_sd               =   4.9411647198569E+00
(PID.TID 0000.0001) %MON dynstat_eta_del2             =   1.9058675585692E-01
(PID.TID 0000.0001) %MON dynstat_uvel_max             =   6.4415970099976E-03
(PID.TID 0000.0001) %MON dynstat_uvel_min             =  -3.0209715452431E-02
(PID.TID 0000.0001) %MON dynstat_uvel_mean            =   8.4352446693000E-10
(PID.TID 0000.0001) %MON dynstat_uvel_sd              =   8.2195782339773E-04
(PID.TID 0000.0001) %MON dynstat_uvel_del2            =   1.2586210383288E-06
(PID.TID 0000.0001) %MON dynstat_vvel_max             =   2.1124985031924E-02
(PID.TID 0000.0001) %MON dynstat_vvel_min             =  -7.8474434804576E-03
(PID.TID 0000.0001) %MON dynstat_vvel_mean            =   2.6646728586654E-08
(PID.TID 0000.0001) %MON dynstat_vvel_sd              =   4.0108371079047E-04
(PID.TID 0000.0001) %MON dynstat_vvel_del2            =   1.0627002087624E-06
(PID.TID 0000.0001) %MON dynstat_wvel_max             =   1.2212624298722E-03
(PID.TID 0000.0001) %MON dynstat_wvel_min             =  -1.4545619972388E-03
(PID.TID 0000.0001) %MON dynstat_wvel_mean            =   4.4235535430153E-10
(PID.TID 0000.0001) %MON dynstat_wvel_sd              =   2.0038013321207E-05
(PID.TID 0000.0001) %MON dynstat_wvel_del2            =   8.3022491706337E-08
(PID.TID 0000.0001) %MON dynstat_theta_max            =   1.2000000000000E+00
(PID.TID 0000.0001) %MON dynstat_theta_min            =  -1.0000000000000E+00
(PID.TID 0000.0001) %MON dynstat_theta_mean           =   5.6513665158074E-01
(PID.TID 0000.0001) %MON dynstat_theta_sd             =   8.4894244191345E-01
(PID.TID 0000.0001) %MON dynstat_theta_del2           =   2.9780511097784E-06
(PID.TID 0000.0001) %MON dynstat_salt_max             =   3.4700000000000E+01
(PID.TID 0000.0001) %MON dynstat_salt_min             =   3.4000000000000E+01
(PID.TID 0000.0001) %MON dynstat_salt_mean            =   3.4497968659202E+01
(PID.TID 0000.0001) %MON dynstat_salt_sd              =   2.7011378097084E-01
(PID.TID 0000.0001) %MON dynstat_salt_del2            =   1.1778031484777E-06
(PID.TID 0000.0001) %MON advcfl_uvel_max              =   3.0209715452431E-03
(PID.TID 0000.0001) %MON advcfl_vvel_max              =   2.1124985031924E-03
(PID.TID 0000.0001) %MON advcfl_wvel_max              =   7.2728099861939E-03
(PID.TID 0000.0001) %MON advcfl_W_hf_max              =   7.2728099861939E-03
(PID.TID 0000.0001) %MON pe_b_mean                    =  -6.8205564360295E-01
(PID.TID 0000.0001) %MON ke_max                       =   3.5804939733030E-04
(PID.TID 0000.0001) %MON ke_mean                      =   4.1188873772514E-07
(PID.TID 0000.0001) %MON ke_vol                       =   4.6183051547414E+12
(PID.TID 0000.0001) // =======================================================
(PID.TID 0000.0001) // End MONITOR dynamic field statistics
(PID.TID 0000.0001) // =======================================================
(PID.TID 0000.0001) // =======================================================
(PID.TID 0000.0001) // Begin OBCS MONITOR field statistics
(PID.TID 0000.0001) // =======================================================
(PID.TID 0000.0001) %MON obc_N_vVel_max               =  -1.6234679468576E-08
(PID.TID 0000.0001) %MON obc_N_vVel_min               =  -1.6234679468577E-08
(PID.TID 0000.0001) %MON obc_N_vVel_mean              =  -1.6234679468577E-08
(PID.TID 0000.0001) %MON obc_N_vVel_sd                =  -4.9303806576313E-30
(PID.TID 0000.0001) %MON obc_N_vVel_Int               =  -1.0714888449261E+00
(PID.TID 0000.0001) // =======================================================
(PID.TID 0000.0001) // End OBCS MONITOR field statistics
(PID.TID 0000.0001) // =======================================================
 cg2d: Sum(rhs),rhsMax =   3.00889228925608E+00  4.53044159794011E+02
(PID.TID 0000.0001)      cg2d_init_res =   3.45670391167374E-06
(PID.TID 0000.0001)      cg2d_iters(min,last) =      -1      75
(PID.TID 0000.0001)      cg2d_last_res =   8.35790858563819E-12
(PID.TID 0000.0001) // =======================================================
(PID.TID 0000.0001) // Begin MONITOR dynamic field statistics
(PID.TID 0000.0001) // =======================================================
(PID.TID 0000.0001) %MON time_tsnumber                =                  1149
(PID.TID 0000.0001) %MON time_secondsf                =   1.1490000000000E+05
(PID.TID 0000.0001) %MON dynstat_eta_max              =   5.7986522818003E+00
(PID.TID 0000.0001) %MON dynstat_eta_min              =  -1.4171324332120E+01
(PID.TID 0000.0001) %MON dynstat_eta_mean             =  -2.5243723686976E+00
(PID.TID 0000.0001) %MON dynstat_eta_sd               =   4.9411629583035E+00
(PID.TID 0000.0001) %MON dynstat_eta_del2             =   1.9058677422643E-01
(PID.TID 0000.0001) %MON dynstat_uvel_max             =   6.4574374043209E-03
(PID.TID 0000.0001) %MON dynstat_uvel_min             =  -3.0279637279834E-02
(PID.TID 0000.0001) %MON dynstat_uvel_mean            =   8.6026636400170E-10
(PID.TID 0000.0001) %MON dynstat_uvel_sd              =   8.2398220053353E-04
(PID.TID 0000.0001) %MON dynstat_uvel_del2            =   1.2616960134613E-06
(PID.TID 0000.0001) %MON dynstat_vvel_max             =   2.1164368743612E-02
(PID.TID 0000.0001) %MON dynstat_vvel_min             =  -7.8638595355871E-03
(PID.TID 0000.0001) %MON dynstat_vvel_mean            =   4.5102655707068E-08
(PID.TID 0000.0001) %MON dynstat_vvel_sd              =   4.0189420957686E-04
(PID.TID 0000.0001) %MON dynstat_vvel_del2            =   1.0649814036237E-06
(PID.TID 0000.0001) %MON dynstat_wvel_max             =   1.2240300223577E-03
(PID.TID 0000.0001) %MON dynstat_wvel_min             =  -1.4586596008268E-03
(PID.TID 0000.0001) %MON dynstat_wvel_mean            =   4.3664694509173E-10
(PID.TID 0000.0001) %MON dynstat_wvel_sd              =   2.0102062742756E-05
(PID.TID 0000.0001) %MON dynstat_wvel_del2            =   8.3318753791835E-08
(PID.TID 0000.0001) %MON dynstat_theta_max            =   1.2000000000000E+00
(PID.TID 0000.0001) %MON dynstat_theta_min            =  -1.0000000000000E+00
(PID.TID 0000.0001) %MON dynstat_theta_mean           =   5.6513596537804E-01
(PID.TID 0000.0001) %MON dynstat_theta_sd             =   8.4894213994632E-01
(PID.TID 0000.0001) %MON dynstat_theta_del2           =   2.9840472803329E-06
(PID.TID 0000.0001) %MON dynstat_salt_max             =   3.4700000000000E+01
(PID.TID 0000.0001) %MON dynstat_salt_min             =   3.4000000000000E+01
(PID.TID 0000.0001) %MON dynstat_salt_mean            =   3.4497968385200E+01
(PID.TID 0000.0001) %MON dynstat_salt_sd              =   2.7011366713525E-01
(PID.TID 0000.0001) %MON dynstat_salt_del2            =   1.1801956738551E-06
(PID.TID 0000.0001) %MON advcfl_uvel_max              =   3.0279637279834E-03
(PID.TID 0000.0001) %MON advcfl_vvel_max              =   2.1164368743612E-03
(PID.TID 0000.0001) %MON advcfl_wvel_max              =   7.2932980041338E-03
(PID.TID 0000.0001) %MON advcfl_W_hf_max              =   7.2932980041338E-03
(PID.TID 0000.0001) %MON pe_b_mean                    =  -6.8205381669478E-01
(PID.TID 0000.0001) %MON ke_max                       =   3.5999481469318E-04
(PID.TID 0000.0001) %MON ke_mean                      =   4.1384881865622E-07
(PID.TID 0000.0001) %MON ke_vol                       =   4.6183051914627E+12
(PID.TID 0000.0001) // =======================================================
(PID.TID 0000.0001) // End MONITOR dynamic field statistics
(PID.TID 0000.0001) // =======================================================
(PID.TID 0000.0001) // =======================================================
(PID.TID 0000.0001) // Begin OBCS MONITOR field statistics
(PID.TID 0000.0001) // =======================================================
(PID.TID 0000.0001) %MON obc_N_vVel_max               =   1.7912640947772E-09
(PID.TID 0000.0001) %MON obc_N_vVel_min               =   1.7912640947771E-09
(PID.TID 0000.0001) %MON obc_N_vVel_mean              =   1.7912640947772E-09
(PID.TID 0000.0001) %MON obc_N_vVel_sd                =  -1.8527446065005E-31
(PID.TID 0000.0001) %MON obc_N_vVel_Int               =   1.1822343025529E-01
(PID.TID 0000.0001) // =======================================================
(PID.TID 0000.0001) // End OBCS MONITOR field statistics
(PID.TID 0000.0001) // =======================================================
 cg2d: Sum(rhs),rhsMax =   3.00888497952244E+00  4.53044154155092E+02
(PID.TID 0000.0001)      cg2d_init_res =   3.46229591135805E-06
(PID.TID 0000.0001)      cg2d_iters(min,last) =      -1      75
(PID.TID 0000.0001)      cg2d_last_res =   8.37161895398563E-12
(PID.TID 0000.0001) // =======================================================
(PID.TID 0000.0001) // Begin MONITOR dynamic field statistics
(PID.TID 0000.0001) // =======================================================
(PID.TID 0000.0001) %MON time_tsnumber                =                  1150
(PID.TID 0000.0001) %MON time_secondsf                =   1.1500000000000E+05
(PID.TID 0000.0001) %MON dynstat_eta_max              =   5.7986549594268E+00
(PID.TID 0000.0001) %MON dynstat_eta_min              =  -1.4171311190563E+01
(PID.TID 0000.0001) %MON dynstat_eta_mean             =  -2.5243662046254E+00
(PID.TID 0000.0001) %MON dynstat_eta_sd               =   4.9411612001269E+00
(PID.TID 0000.0001) %MON dynstat_eta_del2             =   1.9058679265884E-01
(PID.TID 0000.0001) %MON dynstat_uvel_max             =   6.4733115732851E-03
(PID.TID 0000.0001) %MON dynstat_uvel_min             =  -3.0349630163728E-02
(PID.TID 0000.0001) %MON dynstat_uvel_mean            =   8.8702200621479E-10
(PID.TID 0000.0001) %MON dynstat_uvel_sd              =   8.2601068327695E-04
(PID.TID 0000.0001) %MON dynstat_uvel_del2            =   1.2647782718704E-06
(PID.TID 0000.0001) %MON dynstat_vvel_max             =   2.1203776331452E-02
(PID.TID 0000.0001) %MON dynstat_vvel_min             =  -7.8802973360519E-03
(PID.TID 0000.0001) %MON dynstat_vvel_mean            =   6.3185477451513E-08
(PID.TID 0000.0001) %MON dynstat_vvel_sd              =   4.0270587834845E-04
(PID.TID 0000.0001) %MON dynstat_vvel_del2            =   1.0672634298086E-06
(PID.TID 0000.0001) %MON dynstat_wvel_max             =   1.2268012501863E-03
(PID.TID 0000.0001) %MON dynstat_wvel_min             =  -1.4627643645402E-03
(PID.TID 0000.0001) %MON dynstat_wvel_mean            =   4.2921591497635E-10
(PID.TID 0000.0001) %MON dynstat_wvel_sd              =   2.0164995960109E-05
(PID.TID 0000.0001) %MON dynstat_wvel_del2            =   8.3614226432378E-08
(PID.TID 0000.0001) %MON dynstat_theta_max            =   1.2000000000000E+00
(PID.TID 0000.0001) %MON dynstat_theta_min            =  -1.0000000000000E+00
(PID.TID 0000.0001) %MON dynstat_theta_mean           =   5.6513527797672E-01
(PID.TID 0000.0001) %MON dynstat_theta_sd             =   8.4894183734323E-01
(PID.TID 0000.0001) %MON dynstat_theta_del2           =   2.9900549124410E-06
(PID.TID 0000.0001) %MON dynstat_salt_max             =   3.4700000000000E+01
(PID.TID 0000.0001) %MON dynstat_salt_min             =   3.4000000000000E+01
(PID.TID 0000.0001) %MON dynstat_salt_mean            =   3.4497968110717E+01
(PID.TID 0000.0001) %MON dynstat_salt_sd              =   2.7011355305749E-01
(PID.TID 0000.0001) %MON dynstat_salt_del2            =   1.1825922859042E-06
(PID.TID 0000.0001) %MON advcfl_uvel_max              =   3.0349630163728E-03
(PID.TID 0000.0001) %MON advcfl_vvel_max              =   2.1203776331452E-03
(PID.TID 0000.0001) %MON advcfl_wvel_max              =   7.3138218227010E-03
(PID.TID 0000.0001) %MON advcfl_W_hf_max              =   7.3138218227010E-03
(PID.TID 0000.0001) %MON pe_b_mean                    =  -6.8205199025334E-01
(PID.TID 0000.0001) %MON ke_max                       =   3.6194914177084E-04
(PID.TID 0000.0001) %MON ke_mean                      =   4.1581737652010E-07
(PID.TID 0000.0001) %MON ke_vol                       =   4.6183052281299E+12
(PID.TID 0000.0001) // =======================================================
(PID.TID 0000.0001) // End MONITOR dynamic field statistics
(PID.TID 0000.0001) // =======================================================
(PID.TID 0000.0001) // =======================================================
(PID.TID 0000.0001) // Begin OBCS MONITOR field statistics
(PID.TID 0000.0001) // =======================================================
(PID.TID 0000.0001) %MON obc_N_vVel_max               =   1.9614744641607E-08
(PID.TID 0000.0001) %MON obc_N_vVel_min               =   1.9614744641607E-08
(PID.TID 0000.0001) %MON obc_N_vVel_mean              =   1.9614744641607E-08
(PID.TID 0000.0001) %MON obc_N_vVel_sd                =  -1.0353799381026E-29
(PID.TID 0000.0001) %MON obc_N_vVel_Int               =   1.2945731463460E+00
(PID.TID 0000.0001) // =======================================================
(PID.TID 0000.0001) // End OBCS MONITOR field statistics
(PID.TID 0000.0001) // =======================================================
 cg2d: Sum(rhs),rhsMax =   3.00887767858959E+00  4.53044148689515E+02
(PID.TID 0000.0001)      cg2d_init_res =   3.46804647872440E-06
(PID.TID 0000.0001)      cg2d_iters(min,last) =      -1      75
(PID.TID 0000.0001)      cg2d_last_res =   8.38541895065171E-12
(PID.TID 0000.0001) // =======================================================
(PID.TID 0000.0001) // Begin MONITOR dynamic field statistics
(PID.TID 0000.0001) // =======================================================
(PID.TID 0000.0001) %MON time_tsnumber                =                  1151
(PID.TID 0000.0001) %MON time_secondsf                =   1.1510000000000E+05
(PID.TID 0000.0001) %MON dynstat_eta_max              =   5.7986576060346E+00
(PID.TID 0000.0001) %MON dynstat_eta_min              =  -1.4171298061662E+01
(PID.TID 0000.0001) %MON dynstat_eta_mean             =  -2.5243600489028E+00
(PID.TID 0000.0001) %MON dynstat_eta_sd               =   4.9411594449358E+00
(PID.TID 0000.0001) %MON dynstat_eta_del2             =   1.9058681115260E-01
(PID.TID 0000.0001) %MON dynstat_uvel_max             =   6.4892195418320E-03
(PID.TID 0000.0001) %MON dynstat_uvel_min             =  -3.0419693814946E-02
(PID.TID 0000.0001) %MON dynstat_uvel_mean            =   9.2361895588267E-10
(PID.TID 0000.0001) %MON dynstat_uvel_sd              =   8.2804328124568E-04
(PID.TID 0000.0001) %MON dynstat_uvel_del2            =   1.2678678287002E-06
(PID.TID 0000.0001) %MON dynstat_vvel_max             =   2.1243207663901E-02
(PID.TID 0000.0001) %MON dynstat_vvel_min             =  -7.8967568633601E-03
(PID.TID 0000.0001) %MON dynstat_vvel_mean            =   8.0649450962427E-08
(PID.TID 0000.0001) %MON dynstat_vvel_sd              =   4.0351843683859E-04
(PID.TID 0000.0001) %MON dynstat_vvel_del2            =   1.0695437443469E-06
(PID.TID 0000.0001) %MON dynstat_wvel_max             =   1.2295761103217E-03
(PID.TID 0000.0001) %MON dynstat_wvel_min             =  -1.4668762709303E-03
(PID.TID 0000.0001) %MON dynstat_wvel_mean            =   4.2017002823564E-10
(PID.TID 0000.0001) %MON dynstat_wvel_sd              =   2.0225726505332E-05
(PID.TID 0000.0001) %MON dynstat_wvel_del2            =   8.3901406535022E-08
(PID.TID 0000.0001) %MON dynstat_theta_max            =   1.2000000000000E+00
(PID.TID 0000.0001) %MON dynstat_theta_min            =  -1.0000000000000E+00
(PID.TID 0000.0001) %MON dynstat_theta_mean           =   5.6513458937533E-01
(PID.TID 0000.0001) %MON dynstat_theta_sd             =   8.4894153410452E-01
(PID.TID 0000.0001) %MON dynstat_theta_del2           =   2.9960772815607E-06
(PID.TID 0000.0001) %MON dynstat_salt_max             =   3.4700000000000E+01
(PID.TID 0000.0001) %MON dynstat_salt_min             =   3.4000000000000E+01
(PID.TID 0000.0001) %MON dynstat_salt_mean            =   3.4497967835752E+01
(PID.TID 0000.0001) %MON dynstat_salt_sd              =   2.7011343873794E-01
(PID.TID 0000.0001) %MON dynstat_salt_del2            =   1.1849938403452E-06
(PID.TID 0000.0001) %MON advcfl_uvel_max              =   3.0419693814946E-03
(PID.TID 0000.0001) %MON advcfl_vvel_max              =   2.1243207663901E-03
(PID.TID 0000.0001) %MON advcfl_wvel_max              =   7.3343813546513E-03
(PID.TID 0000.0001) %MON advcfl_W_hf_max              =   7.3343813546513E-03
(PID.TID 0000.0001) %MON pe_b_mean                    =  -6.8205016412533E-01
(PID.TID 0000.0001) %MON ke_max                       =   3.6391241018874E-04
(PID.TID 0000.0001) %MON ke_mean                      =   4.1779433336544E-07
(PID.TID 0000.0001) %MON ke_vol                       =   4.6183052647445E+12
(PID.TID 0000.0001) // =======================================================
(PID.TID 0000.0001) // End MONITOR dynamic field statistics
(PID.TID 0000.0001) // =======================================================
(PID.TID 0000.0001) // =======================================================
(PID.TID 0000.0001) // Begin OBCS MONITOR field statistics
(PID.TID 0000.0001) // =======================================================
(PID.TID 0000.0001) %MON obc_N_vVel_max               =   3.6992952475303E-08
(PID.TID 0000.0001) %MON obc_N_vVel_min               =   3.6992952475302E-08
(PID.TID 0000.0001) %MON obc_N_vVel_mean              =   3.6992952475302E-08
(PID.TID 0000.0001) %MON obc_N_vVel_sd                =   9.9400617894926E-15
(PID.TID 0000.0001) %MON obc_N_vVel_Int               =   2.4415348633699E+00
(PID.TID 0000.0001) // =======================================================
(PID.TID 0000.0001) // End OBCS MONITOR field statistics
(PID.TID 0000.0001) // =======================================================
 cg2d: Sum(rhs),rhsMax =   3.00887038620570E+00  4.53044143296205E+02
(PID.TID 0000.0001)      cg2d_init_res =   3.47391905911007E-06
(PID.TID 0000.0001)      cg2d_iters(min,last) =      -1      75
(PID.TID 0000.0001)      cg2d_last_res =   8.39940695763840E-12
(PID.TID 0000.0001) // =======================================================
(PID.TID 0000.0001) // Begin MONITOR dynamic field statistics
(PID.TID 0000.0001) // =======================================================
(PID.TID 0000.0001) %MON time_tsnumber                =                  1152
(PID.TID 0000.0001) %MON time_secondsf                =   1.1520000000000E+05
(PID.TID 0000.0001) %MON dynstat_eta_max              =   5.7986602231865E+00
(PID.TID 0000.0001) %MON dynstat_eta_min              =  -1.4171284943610E+01
(PID.TID 0000.0001) %MON dynstat_eta_mean             =  -2.5243539007553E+00
(PID.TID 0000.0001) %MON dynstat_eta_sd               =   4.9411576922598E+00
(PID.TID 0000.0001) %MON dynstat_eta_del2             =   1.9058682970602E-01
(PID.TID 0000.0001) %MON dynstat_uvel_max             =   6.5051613341911E-03
(PID.TID 0000.0001) %MON dynstat_uvel_min             =  -3.0489827944551E-02
(PID.TID 0000.0001) %MON dynstat_uvel_mean            =   9.6974377992897E-10
(PID.TID 0000.0001) %MON dynstat_uvel_sd              =   8.3008000406404E-04
(PID.TID 0000.0001) %MON dynstat_uvel_del2            =   1.2709646987554E-06
(PID.TID 0000.0001) %MON dynstat_vvel_max             =   2.1282662610468E-02
(PID.TID 0000.0001) %MON dynstat_vvel_min             =  -7.9132380975553E-03
(PID.TID 0000.0001) %MON dynstat_vvel_mean            =   9.7257351737884E-08
(PID.TID 0000.0001) %MON dynstat_vvel_sd              =   4.0433164255060E-04
(PID.TID 0000.0001) %MON dynstat_vvel_del2            =   1.0718200640598E-06
(PID.TID 0000.0001) %MON dynstat_wvel_max             =   1.2323545996872E-03
(PID.TID 0000.0001) %MON dynstat_wvel_min             =  -1.4709953024451E-03
(PID.TID 0000.0001) %MON dynstat_wvel_mean            =   4.0963883082671E-10
(PID.TID 0000.0001) %MON dynstat_wvel_sd              =   2.0283305690075E-05
(PID.TID 0000.0001) %MON dynstat_wvel_del2            =   8.4173263496009E-08
(PID.TID 0000.0001) %MON dynstat_theta_max            =   1.2000000000000E+00
(PID.TID 0000.0001) %MON dynstat_theta_min            =  -1.0000000000000E+00
(PID.TID 0000.0001) %MON dynstat_theta_mean           =   5.6513389957213E-01
(PID.TID 0000.0001) %MON dynstat_theta_sd             =   8.4894123023184E-01
(PID.TID 0000.0001) %MON dynstat_theta_del2           =   3.0021173613381E-06
(PID.TID 0000.0001) %MON dynstat_salt_max             =   3.4700000000000E+01
(PID.TID 0000.0001) %MON dynstat_salt_min             =   3.4000000000000E+01
(PID.TID 0000.0001) %MON dynstat_salt_mean            =   3.4497967560304E+01
(PID.TID 0000.0001) %MON dynstat_salt_sd              =   2.7011332417704E-01
(PID.TID 0000.0001) %MON dynstat_salt_del2            =   1.1874011147903E-06
(PID.TID 0000.0001) %MON advcfl_uvel_max              =   3.0489827944551E-03
(PID.TID 0000.0001) %MON advcfl_vvel_max              =   2.1282662610468E-03
(PID.TID 0000.0001) %MON advcfl_wvel_max              =   7.3549765122254E-03
(PID.TID 0000.0001) %MON advcfl_W_hf_max              =   7.3549765122254E-03
(PID.TID 0000.0001) %MON pe_b_mean                    =  -6.8204833810682E-01
(PID.TID 0000.0001) %MON ke_max                       =   3.6588465170573E-04
(PID.TID 0000.0001) %MON ke_mean                      =   4.1977962572060E-07
(PID.TID 0000.0001) %MON ke_vol                       =   4.6183053013095E+12
(PID.TID 0000.0001) // =======================================================
(PID.TID 0000.0001) // End MONITOR dynamic field statistics
(PID.TID 0000.0001) // =======================================================
(PID.TID 0000.0001) // =======================================================
(PID.TID 0000.0001) // Begin OBCS MONITOR field statistics
(PID.TID 0000.0001) // =======================================================
(PID.TID 0000.0001) %MON obc_N_vVel_max               =   5.3689243831478E-08
(PID.TID 0000.0001) %MON obc_N_vVel_min               =   5.3689243831478E-08
(PID.TID 0000.0001) %MON obc_N_vVel_mean              =   5.3689243831478E-08
(PID.TID 0000.0001) %MON obc_N_vVel_sd                =  -7.8886090522101E-29
(PID.TID 0000.0001) %MON obc_N_vVel_Int               =   3.5434900928776E+00
(PID.TID 0000.0001) // =======================================================
(PID.TID 0000.0001) // End OBCS MONITOR field statistics
(PID.TID 0000.0001) // =======================================================
 cg2d: Sum(rhs),rhsMax =   3.00886310182825E+00  4.53044137872774E+02
(PID.TID 0000.0001)      cg2d_init_res =   3.47987008739371E-06
(PID.TID 0000.0001)      cg2d_iters(min,last) =      -1      75
(PID.TID 0000.0001)      cg2d_last_res =   8.41365506331136E-12
(PID.TID 0000.0001) // =======================================================
(PID.TID 0000.0001) // Begin MONITOR dynamic field statistics
(PID.TID 0000.0001) // =======================================================
(PID.TID 0000.0001) %MON time_tsnumber                =                  1153
(PID.TID 0000.0001) %MON time_secondsf                =   1.1530000000000E+05
(PID.TID 0000.0001) %MON dynstat_eta_max              =   5.7986628128596E+00
(PID.TID 0000.0001) %MON dynstat_eta_min              =  -1.4171271834152E+01
(PID.TID 0000.0001) %MON dynstat_eta_mean             =  -2.5243477591574E+00
(PID.TID 0000.0001) %MON dynstat_eta_sd               =   4.9411559415535E+00
(PID.TID 0000.0001) %MON dynstat_eta_del2             =   1.9058684831713E-01
(PID.TID 0000.0001) %MON dynstat_uvel_max             =   6.5211369738316E-03
(PID.TID 0000.0001) %MON dynstat_uvel_min             =  -3.0560032263995E-02
(PID.TID 0000.0001) %MON dynstat_uvel_mean            =   1.0249496989944E-09
(PID.TID 0000.0001) %MON dynstat_uvel_sd              =   8.3212086134566E-04
(PID.TID 0000.0001) %MON dynstat_uvel_del2            =   1.2740688963246E-06
(PID.TID 0000.0001) %MON dynstat_vvel_max             =   2.1322141042043E-02
(PID.TID 0000.0001) %MON dynstat_vvel_min             =  -7.9297410169028E-03
(PID.TID 0000.0001) %MON dynstat_vvel_mean            =   1.1278377763892E-07
(PID.TID 0000.0001) %MON dynstat_vvel_sd              =   4.0514530380705E-04
(PID.TID 0000.0001) %MON dynstat_vvel_del2            =   1.0740904838157E-06
(PID.TID 0000.0001) %MON dynstat_wvel_max             =   1.2351367151426E-03
(PID.TID 0000.0001) %MON dynstat_wvel_min             =  -1.4751214413919E-03
(PID.TID 0000.0001) %MON dynstat_wvel_mean            =   3.9777264824746E-10
(PID.TID 0000.0001) %MON dynstat_wvel_sd              =   2.0336974724960E-05
(PID.TID 0000.0001) %MON dynstat_wvel_del2            =   8.4423634811702E-08
(PID.TID 0000.0001) %MON dynstat_theta_max            =   1.2000000000000E+00
(PID.TID 0000.0001) %MON dynstat_theta_min            =  -1.0000000000000E+00
(PID.TID 0000.0001) %MON dynstat_theta_mean           =   5.6513320856547E-01
(PID.TID 0000.0001) %MON dynstat_theta_sd             =   8.4894092572653E-01
(PID.TID 0000.0001) %MON dynstat_theta_del2           =   3.0081776334828E-06
(PID.TID 0000.0001) %MON dynstat_salt_max             =   3.4700000000000E+01
(PID.TID 0000.0001) %MON dynstat_salt_min             =   3.4000000000000E+01
(PID.TID 0000.0001) %MON dynstat_salt_mean            =   3.4497967284374E+01
(PID.TID 0000.0001) %MON dynstat_salt_sd              =   2.7011320937498E-01
(PID.TID 0000.0001) %MON dynstat_salt_del2            =   1.1898147460219E-06
(PID.TID 0000.0001) %MON advcfl_uvel_max              =   3.0560032263995E-03
(PID.TID 0000.0001) %MON advcfl_vvel_max              =   2.1322141042043E-03
(PID.TID 0000.0001) %MON advcfl_wvel_max              =   7.3756072069595E-03
(PID.TID 0000.0001) %MON advcfl_W_hf_max              =   7.3756072069595E-03
(PID.TID 0000.0001) %MON pe_b_mean                    =  -6.8204651194642E-01
(PID.TID 0000.0001) %MON ke_max                       =   3.6786589886199E-04
(PID.TID 0000.0001) %MON ke_mean                      =   4.2177321002131E-07
(PID.TID 0000.0001) %MON ke_vol                       =   4.6183053378295E+12
(PID.TID 0000.0001) // =======================================================
(PID.TID 0000.0001) // End MONITOR dynamic field statistics
(PID.TID 0000.0001) // =======================================================
(PID.TID 0000.0001) // =======================================================
(PID.TID 0000.0001) // Begin OBCS MONITOR field statistics
(PID.TID 0000.0001) // =======================================================
(PID.TID 0000.0001) %MON obc_N_vVel_max               =   6.9476387858762E-08
(PID.TID 0000.0001) %MON obc_N_vVel_min               =   6.9476387858762E-08
(PID.TID 0000.0001) %MON obc_N_vVel_mean              =   6.9476387858762E-08
(PID.TID 0000.0001) %MON obc_N_vVel_sd                =   1.6568753574633E-14
(PID.TID 0000.0001) %MON obc_N_vVel_Int               =   4.5854415986783E+00
(PID.TID 0000.0001) // =======================================================
(PID.TID 0000.0001) // End OBCS MONITOR field statistics
(PID.TID 0000.0001) // =======================================================
 cg2d: Sum(rhs),rhsMax =   3.00885582463028E+00  4.53044132316931E+02
(PID.TID 0000.0001)      cg2d_init_res =   3.48585889259976E-06
(PID.TID 0000.0001)      cg2d_iters(min,last) =      -1      75
(PID.TID 0000.0001)      cg2d_last_res =   8.42816642742180E-12
(PID.TID 0000.0001) // =======================================================
(PID.TID 0000.0001) // Begin MONITOR dynamic field statistics
(PID.TID 0000.0001) // =======================================================
(PID.TID 0000.0001) %MON time_tsnumber                =                  1154
(PID.TID 0000.0001) %MON time_secondsf                =   1.1540000000000E+05
(PID.TID 0000.0001) %MON dynstat_eta_max              =   5.7986653773924E+00
(PID.TID 0000.0001) %MON dynstat_eta_min              =  -1.4171258730633E+01
(PID.TID 0000.0001) %MON dynstat_eta_mean             =  -2.5243416228451E+00
(PID.TID 0000.0001) %MON dynstat_eta_sd               =   4.9411541922058E+00
(PID.TID 0000.0001) %MON dynstat_eta_del2             =   1.9058686698374E-01
(PID.TID 0000.0001) %MON dynstat_uvel_max             =   6.5371464833737E-03
(PID.TID 0000.0001) %MON dynstat_uvel_min             =  -3.0630306485158E-02
(PID.TID 0000.0001) %MON dynstat_uvel_mean            =   1.0886600341197E-09
(PID.TID 0000.0001) %MON dynstat_uvel_sd              =   8.3416586275694E-04
(PID.TID 0000.0001) %MON dynstat_uvel_del2            =   1.2771804363842E-06
(PID.TID 0000.0001) %MON dynstat_vvel_max             =   2.1361642831397E-02
(PID.TID 0000.0001) %MON dynstat_vvel_min             =  -7.9462655976092E-03
(PID.TID 0000.0001) %MON dynstat_vvel_mean            =   1.2701830862798E-07
(PID.TID 0000.0001) %MON dynstat_vvel_sd              =   4.0595928992877E-04
(PID.TID 0000.0001) %MON dynstat_vvel_del2            =   1.0763535744397E-06
(PID.TID 0000.0001) %MON dynstat_wvel_max             =   1.2379224534919E-03
(PID.TID 0000.0001) %MON dynstat_wvel_min             =  -1.4792546700761E-03
(PID.TID 0000.0001) %MON dynstat_wvel_mean            =   3.8474031169065E-10
(PID.TID 0000.0001) %MON dynstat_wvel_sd              =   2.0386206358865E-05
(PID.TID 0000.0001) %MON dynstat_wvel_del2            =   8.4647576777238E-08
(PID.TID 0000.0001) %MON dynstat_theta_max            =   1.2000000000000E+00
(PID.TID 0000.0001) %MON dynstat_theta_min            =  -1.0000000000000E+00
(PID.TID 0000.0001) %MON dynstat_theta_mean           =   5.6513251635362E-01
(PID.TID 0000.0001) %MON dynstat_theta_sd             =   8.4894062059127E-01
(PID.TID 0000.0001) %MON dynstat_theta_del2           =   3.0142599124083E-06
(PID.TID 0000.0001) %MON dynstat_salt_max             =   3.4700000000000E+01
(PID.TID 0000.0001) %MON dynstat_salt_min             =   3.4000000000000E+01
(PID.TID 0000.0001) %MON dynstat_salt_mean            =   3.4497967007960E+01
(PID.TID 0000.0001) %MON dynstat_salt_sd              =   2.7011309433260E-01
(PID.TID 0000.0001) %MON dynstat_salt_del2            =   1.1922352516726E-06
(PID.TID 0000.0001) %MON advcfl_uvel_max              =   3.0630306485158E-03
(PID.TID 0000.0001) %MON advcfl_vvel_max              =   2.1361642831397E-03
(PID.TID 0000.0001) %MON advcfl_wvel_max              =   7.3962733503804E-03
(PID.TID 0000.0001) %MON advcfl_W_hf_max              =   7.3962733503804E-03
(PID.TID 0000.0001) %MON pe_b_mean                    =  -6.8204468534856E-01
(PID.TID 0000.0001) %MON ke_max                       =   3.6985618451421E-04
(PID.TID 0000.0001) %MON ke_mean                      =   4.2377506700370E-07
(PID.TID 0000.0001) %MON ke_vol                       =   4.6183053743106E+12
(PID.TID 0000.0001) // =======================================================
(PID.TID 0000.0001) // End MONITOR dynamic field statistics
(PID.TID 0000.0001) // =======================================================
(PID.TID 0000.0001) // =======================================================
(PID.TID 0000.0001) // Begin OBCS MONITOR field statistics
(PID.TID 0000.0001) // =======================================================
(PID.TID 0000.0001) %MON obc_N_vVel_max               =   8.4139764107265E-08
(PID.TID 0000.0001) %MON obc_N_vVel_min               =   8.4139764107263E-08
(PID.TID 0000.0001) %MON obc_N_vVel_mean              =   8.4139764107263E-08
(PID.TID 0000.0001) %MON obc_N_vVel_sd                =   1.6497181950298E-14
(PID.TID 0000.0001) %MON obc_N_vVel_Int               =   5.5532244310793E+00
(PID.TID 0000.0001) // =======================================================
(PID.TID 0000.0001) // End OBCS MONITOR field statistics
(PID.TID 0000.0001) // =======================================================
 cg2d: Sum(rhs),rhsMax =   3.00884855351087E+00  4.53044126527969E+02
(PID.TID 0000.0001)      cg2d_init_res =   3.49186063001304E-06
(PID.TID 0000.0001)      cg2d_iters(min,last) =      -1      75
(PID.TID 0000.0001)      cg2d_last_res =   8.44316703064541E-12
(PID.TID 0000.0001) // =======================================================
(PID.TID 0000.0001) // Begin MONITOR dynamic field statistics
(PID.TID 0000.0001) // =======================================================
(PID.TID 0000.0001) %MON time_tsnumber                =                  1155
(PID.TID 0000.0001) %MON time_secondsf                =   1.1550000000000E+05
(PID.TID 0000.0001) %MON dynstat_eta_max              =   5.7986679194687E+00
(PID.TID 0000.0001) %MON dynstat_eta_min              =  -1.4171245630019E+01
(PID.TID 0000.0001) %MON dynstat_eta_mean             =  -2.5243354903338E+00
(PID.TID 0000.0001) %MON dynstat_eta_sd               =   4.9411524435465E+00
(PID.TID 0000.0001) %MON dynstat_eta_del2             =   1.9058688570348E-01
(PID.TID 0000.0001) %MON dynstat_uvel_max             =   6.5531898846256E-03
(PID.TID 0000.0001) %MON dynstat_uvel_min             =  -3.0700650320228E-02
(PID.TID 0000.0001) %MON dynstat_uvel_mean            =   1.1601760360904E-09
(PID.TID 0000.0001) %MON dynstat_uvel_sd              =   8.3621501780206E-04
(PID.TID 0000.0001) %MON dynstat_uvel_del2            =   1.2802993312327E-06
(PID.TID 0000.0001) %MON dynstat_vvel_max             =   2.1401167853449E-02
(PID.TID 0000.0001) %MON dynstat_vvel_min             =  -7.9637604701708E-03
(PID.TID 0000.0001) %MON dynstat_vvel_mean            =   1.3976846086974E-07
(PID.TID 0000.0001) %MON dynstat_vvel_sd              =   4.0677353804900E-04
(PID.TID 0000.0001) %MON dynstat_vvel_del2            =   1.0786084602558E-06
(PID.TID 0000.0001) %MON dynstat_wvel_max             =   1.2407118114585E-03
(PID.TID 0000.0001) %MON dynstat_wvel_min             =  -1.4833949707389E-03
(PID.TID 0000.0001) %MON dynstat_wvel_mean            =   3.7072686116098E-10
(PID.TID 0000.0001) %MON dynstat_wvel_sd              =   2.0430733585696E-05
(PID.TID 0000.0001) %MON dynstat_wvel_del2            =   8.4841647447466E-08
(PID.TID 0000.0001) %MON dynstat_theta_max            =   1.2000000000000E+00
(PID.TID 0000.0001) %MON dynstat_theta_min            =  -1.0000000000000E+00
(PID.TID 0000.0001) %MON dynstat_theta_mean           =   5.6513182293475E-01
(PID.TID 0000.0001) %MON dynstat_theta_sd             =   8.4894031482821E-01
(PID.TID 0000.0001) %MON dynstat_theta_del2           =   3.0203654042906E-06
(PID.TID 0000.0001) %MON dynstat_salt_max             =   3.4700000000000E+01
(PID.TID 0000.0001) %MON dynstat_salt_min             =   3.4000000000000E+01
(PID.TID 0000.0001) %MON dynstat_salt_mean            =   3.4497966731062E+01
(PID.TID 0000.0001) %MON dynstat_salt_sd              =   2.7011297905059E-01
(PID.TID 0000.0001) %MON dynstat_salt_del2            =   1.1946629528964E-06
(PID.TID 0000.0001) %MON advcfl_uvel_max              =   3.0700650320228E-03
(PID.TID 0000.0001) %MON advcfl_vvel_max              =   2.1401167853449E-03
(PID.TID 0000.0001) %MON advcfl_wvel_max              =   7.4169748536946E-03
(PID.TID 0000.0001) %MON advcfl_W_hf_max              =   7.4169748536946E-03
(PID.TID 0000.0001) %MON pe_b_mean                    =  -6.8204285797749E-01
(PID.TID 0000.0001) %MON ke_max                       =   3.7185554165573E-04
(PID.TID 0000.0001) %MON ke_mean                      =   4.2578520455232E-07
(PID.TID 0000.0001) %MON ke_vol                       =   4.6183054107603E+12
(PID.TID 0000.0001) // =======================================================
(PID.TID 0000.0001) // End MONITOR dynamic field statistics
(PID.TID 0000.0001) // =======================================================
(PID.TID 0000.0001) // =======================================================
(PID.TID 0000.0001) // Begin OBCS MONITOR field statistics
(PID.TID 0000.0001) // =======================================================
(PID.TID 0000.0001) %MON obc_N_vVel_max               =   9.7480366064149E-08
(PID.TID 0000.0001) %MON obc_N_vVel_min               =   9.7480366064146E-08
(PID.TID 0000.0001) %MON obc_N_vVel_mean              =   9.7480366064146E-08
(PID.TID 0000.0001) %MON obc_N_vVel_sd                =   2.1972320632907E-14
(PID.TID 0000.0001) %MON obc_N_vVel_Int               =   6.4337041602337E+00
(PID.TID 0000.0001) // =======================================================
(PID.TID 0000.0001) // End OBCS MONITOR field statistics
(PID.TID 0000.0001) // =======================================================
 cg2d: Sum(rhs),rhsMax =   3.00884128710897E+00  4.53044120408161E+02
(PID.TID 0000.0001)      cg2d_init_res =   3.49785118147994E-06
(PID.TID 0000.0001)      cg2d_iters(min,last) =      -1      75
(PID.TID 0000.0001)      cg2d_last_res =   8.45860149007784E-12
(PID.TID 0000.0001) // =======================================================
(PID.TID 0000.0001) // Begin MONITOR dynamic field statistics
(PID.TID 0000.0001) // =======================================================
(PID.TID 0000.0001) %MON time_tsnumber                =                  1156
(PID.TID 0000.0001) %MON time_secondsf                =   1.1560000000000E+05
(PID.TID 0000.0001) %MON dynstat_eta_max              =   5.7986704420729E+00
(PID.TID 0000.0001) %MON dynstat_eta_min              =  -1.4171232528935E+01
(PID.TID 0000.0001) %MON dynstat_eta_mean             =  -2.5243293599371E+00
(PID.TID 0000.0001) %MON dynstat_eta_sd               =   4.9411506948573E+00
(PID.TID 0000.0001) %MON dynstat_eta_del2             =   1.9058690447381E-01
(PID.TID 0000.0001) %MON dynstat_uvel_max             =   6.5692671985031E-03
(PID.TID 0000.0001) %MON dynstat_uvel_min             =  -3.0771063481992E-02
(PID.TID 0000.0001) %MON dynstat_uvel_mean            =   1.2386885439201E-09
(PID.TID 0000.0001) %MON dynstat_uvel_sd              =   8.3826833594805E-04
(PID.TID 0000.0001) %MON dynstat_uvel_del2            =   1.2834255926195E-06
(PID.TID 0000.0001) %MON dynstat_vvel_max             =   2.1440715985731E-02
(PID.TID 0000.0001) %MON dynstat_vvel_min             =  -7.9820112607818E-03
(PID.TID 0000.0001) %MON dynstat_vvel_mean            =   1.5086240534982E-07
(PID.TID 0000.0001) %MON dynstat_vvel_sd              =   4.0758805601651E-04
(PID.TID 0000.0001) %MON dynstat_vvel_del2            =   1.0808548616201E-06
(PID.TID 0000.0001) %MON dynstat_wvel_max             =   1.2435047857042E-03
(PID.TID 0000.0001) %MON dynstat_wvel_min             =  -1.4875423256121E-03
(PID.TID 0000.0001) %MON dynstat_wvel_mean            =   3.5593122344754E-10
(PID.TID 0000.0001) %MON dynstat_wvel_sd              =   2.0470564057742E-05
(PID.TID 0000.0001) %MON dynstat_wvel_del2            =   8.5004109323575E-08
(PID.TID 0000.0001) %MON dynstat_theta_max            =   1.2000000000000E+00
(PID.TID 0000.0001) %MON dynstat_theta_min            =  -1.0000000000000E+00
(PID.TID 0000.0001) %MON dynstat_theta_mean           =   5.6513112830682E-01
(PID.TID 0000.0001) %MON dynstat_theta_sd             =   8.4894000844012E-01
(PID.TID 0000.0001) %MON dynstat_theta_del2           =   3.0264945743152E-06
(PID.TID 0000.0001) %MON dynstat_salt_max             =   3.4700000000000E+01
(PID.TID 0000.0001) %MON dynstat_salt_min             =   3.4000000000000E+01
(PID.TID 0000.0001) %MON dynstat_salt_mean            =   3.4497966453678E+01
(PID.TID 0000.0001) %MON dynstat_salt_sd              =   2.7011286352960E-01
(PID.TID 0000.0001) %MON dynstat_salt_del2            =   1.1970979769694E-06
(PID.TID 0000.0001) %MON advcfl_uvel_max              =   3.0771063481992E-03
(PID.TID 0000.0001) %MON advcfl_vvel_max              =   2.1440715985731E-03
(PID.TID 0000.0001) %MON advcfl_wvel_max              =   7.4377116280604E-03
(PID.TID 0000.0001) %MON advcfl_W_hf_max              =   7.4377116280604E-03
(PID.TID 0000.0001) %MON pe_b_mean                    =  -6.8204102946169E-01
(PID.TID 0000.0001) %MON ke_max                       =   3.7386400342024E-04
(PID.TID 0000.0001) %MON ke_mean                      =   4.2780365926477E-07
(PID.TID 0000.0001) %MON ke_vol                       =   4.6183054471874E+12
(PID.TID 0000.0001) // =======================================================
(PID.TID 0000.0001) // End MONITOR dynamic field statistics
(PID.TID 0000.0001) // =======================================================
(PID.TID 0000.0001) // =======================================================
(PID.TID 0000.0001) // Begin OBCS MONITOR field statistics
(PID.TID 0000.0001) // =======================================================
(PID.TID 0000.0001) %MON obc_N_vVel_max               =   1.0931757931916E-07
(PID.TID 0000.0001) %MON obc_N_vVel_min               =   1.0931757931916E-07
(PID.TID 0000.0001) %MON obc_N_vVel_mean              =   1.0931757931916E-07
(PID.TID 0000.0001) %MON obc_N_vVel_sd                =   1.3053503572901E-14
(PID.TID 0000.0001) %MON obc_N_vVel_Int               =   7.2149602350644E+00
(PID.TID 0000.0001) // =======================================================
(PID.TID 0000.0001) // End OBCS MONITOR field statistics
(PID.TID 0000.0001) // =======================================================
 cg2d: Sum(rhs),rhsMax =   3.00883402382466E+00  4.53044113863871E+02
(PID.TID 0000.0001)      cg2d_init_res =   3.50382238415965E-06
(PID.TID 0000.0001)      cg2d_iters(min,last) =      -1      75
(PID.TID 0000.0001)      cg2d_last_res =   8.47455056703248E-12
(PID.TID 0000.0001) // =======================================================
(PID.TID 0000.0001) // Begin MONITOR dynamic field statistics
(PID.TID 0000.0001) // =======================================================
(PID.TID 0000.0001) %MON time_tsnumber                =                  1157
(PID.TID 0000.0001) %MON time_secondsf                =   1.1570000000000E+05
(PID.TID 0000.0001) %MON dynstat_eta_max              =   5.7986729484478E+00
(PID.TID 0000.0001) %MON dynstat_eta_min              =  -1.4171219423738E+01
(PID.TID 0000.0001) %MON dynstat_eta_mean             =  -2.5243232297910E+00
(PID.TID 0000.0001) %MON dynstat_eta_sd               =   4.9411489453806E+00
(PID.TID 0000.0001) %MON dynstat_eta_del2             =   1.9058692329206E-01
(PID.TID 0000.0001) %MON dynstat_uvel_max             =   6.5853784449939E-03
(PID.TID 0000.0001) %MON dynstat_uvel_min             =  -3.0841545683421E-02
(PID.TID 0000.0001) %MON dynstat_uvel_mean            =   1.3232885266852E-09
(PID.TID 0000.0001) %MON dynstat_uvel_sd              =   8.4032582660105E-04
(PID.TID 0000.0001) %MON dynstat_uvel_del2            =   1.2865592312932E-06
(PID.TID 0000.0001) %MON dynstat_vvel_max             =   2.1480287108610E-02
(PID.TID 0000.0001) %MON dynstat_vvel_min             =  -8.0002872102412E-03
(PID.TID 0000.0001) %MON dynstat_vvel_mean            =   1.6015140896840E-07
(PID.TID 0000.0001) %MON dynstat_vvel_sd              =   4.0840292133806E-04
(PID.TID 0000.0001) %MON dynstat_vvel_del2            =   1.0830931072677E-06
(PID.TID 0000.0001) %MON dynstat_wvel_max             =   1.2463013727978E-03
(PID.TID 0000.0001) %MON dynstat_wvel_min             =  -1.4916967169595E-03
(PID.TID 0000.0001) %MON dynstat_wvel_mean            =   3.4056334081459E-10
(PID.TID 0000.0001) %MON dynstat_wvel_sd              =   2.0505979018797E-05
(PID.TID 0000.0001) %MON dynstat_wvel_del2            =   8.5135035322783E-08
(PID.TID 0000.0001) %MON dynstat_theta_max            =   1.2000000000000E+00
(PID.TID 0000.0001) %MON dynstat_theta_min            =  -1.0000000000000E+00
(PID.TID 0000.0001) %MON dynstat_theta_mean           =   5.6513043246764E-01
(PID.TID 0000.0001) %MON dynstat_theta_sd             =   8.4893970142939E-01
(PID.TID 0000.0001) %MON dynstat_theta_del2           =   3.0326469999779E-06
(PID.TID 0000.0001) %MON dynstat_salt_max             =   3.4700000000000E+01
(PID.TID 0000.0001) %MON dynstat_salt_min             =   3.4000000000000E+01
(PID.TID 0000.0001) %MON dynstat_salt_mean            =   3.4497966175808E+01
(PID.TID 0000.0001) %MON dynstat_salt_sd              =   2.7011274777028E-01
(PID.TID 0000.0001) %MON dynstat_salt_del2            =   1.1995402554658E-06
(PID.TID 0000.0001) %MON advcfl_uvel_max              =   3.0841545683421E-03
(PID.TID 0000.0001) %MON advcfl_vvel_max              =   2.1480287108610E-03
(PID.TID 0000.0001) %MON advcfl_wvel_max              =   7.4584835847974E-03
(PID.TID 0000.0001) %MON advcfl_W_hf_max              =   7.4584835847974E-03
(PID.TID 0000.0001) %MON pe_b_mean                    =  -6.8203919939909E-01
(PID.TID 0000.0001) %MON ke_max                       =   3.7588160307735E-04
(PID.TID 0000.0001) %MON ke_mean                      =   4.2983049629287E-07
(PID.TID 0000.0001) %MON ke_vol                       =   4.6183054836020E+12
(PID.TID 0000.0001) // =======================================================
(PID.TID 0000.0001) // End MONITOR dynamic field statistics
(PID.TID 0000.0001) // =======================================================
(PID.TID 0000.0001) // =======================================================
(PID.TID 0000.0001) // Begin OBCS MONITOR field statistics
(PID.TID 0000.0001) // =======================================================
(PID.TID 0000.0001) %MON obc_N_vVel_max               =   1.1949175401622E-07
(PID.TID 0000.0001) %MON obc_N_vVel_min               =   1.1949175401622E-07
(PID.TID 0000.0001) %MON obc_N_vVel_mean              =   1.1949175401622E-07
(PID.TID 0000.0001) %MON obc_N_vVel_sd                =  -4.3229577606111E-28
(PID.TID 0000.0001) %MON obc_N_vVel_Int               =   7.8864557650706E+00
(PID.TID 0000.0001) // =======================================================
(PID.TID 0000.0001) // End OBCS MONITOR field statistics
(PID.TID 0000.0001) // =======================================================
 cg2d: Sum(rhs),rhsMax =   3.00882676184423E+00  4.53044106806633E+02
(PID.TID 0000.0001)      cg2d_init_res =   3.50978361388374E-06
(PID.TID 0000.0001)      cg2d_iters(min,last) =      -1      75
(PID.TID 0000.0001)      cg2d_last_res =   8.49105797976639E-12
(PID.TID 0000.0001) // =======================================================
(PID.TID 0000.0001) // Begin MONITOR dynamic field statistics
(PID.TID 0000.0001) // =======================================================
(PID.TID 0000.0001) %MON time_tsnumber                =                  1158
(PID.TID 0000.0001) %MON time_secondsf                =   1.1580000000000E+05
(PID.TID 0000.0001) %MON dynstat_eta_max              =   5.7986754420480E+00
(PID.TID 0000.0001) %MON dynstat_eta_min              =  -1.4171206310531E+01
(PID.TID 0000.0001) %MON dynstat_eta_mean             =  -2.5243170978808E+00
(PID.TID 0000.0001) %MON dynstat_eta_sd               =   4.9411471943311E+00
(PID.TID 0000.0001) %MON dynstat_eta_del2             =   1.9058694215557E-01
(PID.TID 0000.0001) %MON dynstat_uvel_max             =   6.6015236431500E-03
(PID.TID 0000.0001) %MON dynstat_uvel_min             =  -3.0912096638048E-02
(PID.TID 0000.0001) %MON dynstat_uvel_mean            =   1.4129777061000E-09
(PID.TID 0000.0001) %MON dynstat_uvel_sd              =   8.4238749911234E-04
(PID.TID 0000.0001) %MON dynstat_uvel_del2            =   1.2897002570985E-06
(PID.TID 0000.0001) %MON dynstat_vvel_max             =   2.1519881105690E-02
(PID.TID 0000.0001) %MON dynstat_vvel_min             =  -8.0185882781403E-03
(PID.TID 0000.0001) %MON dynstat_vvel_mean            =   1.6751195857867E-07
(PID.TID 0000.0001) %MON dynstat_vvel_sd              =   4.0921827619111E-04
(PID.TID 0000.0001) %MON dynstat_vvel_del2            =   1.0853241128005E-06
(PID.TID 0000.0001) %MON dynstat_wvel_max             =   1.2491015692408E-03
(PID.TID 0000.0001) %MON dynstat_wvel_min             =  -1.4958581270797E-03
(PID.TID 0000.0001) %MON dynstat_wvel_mean            =   3.2484158098778E-10
(PID.TID 0000.0001) %MON dynstat_wvel_sd              =   2.0537516750088E-05
(PID.TID 0000.0001) %MON dynstat_wvel_del2            =   8.5236312295080E-08
(PID.TID 0000.0001) %MON dynstat_theta_max            =   1.2000000000000E+00
(PID.TID 0000.0001) %MON dynstat_theta_min            =  -1.0000000000000E+00
(PID.TID 0000.0001) %MON dynstat_theta_mean           =   5.6512973541506E-01
(PID.TID 0000.0001) %MON dynstat_theta_sd             =   8.4893939379768E-01
(PID.TID 0000.0001) %MON dynstat_theta_del2           =   3.0388215850675E-06
(PID.TID 0000.0001) %MON dynstat_salt_max             =   3.4700000000000E+01
(PID.TID 0000.0001) %MON dynstat_salt_min             =   3.4000000000000E+01
(PID.TID 0000.0001) %MON dynstat_salt_mean            =   3.4497965897451E+01
(PID.TID 0000.0001) %MON dynstat_salt_sd              =   2.7011263177323E-01
(PID.TID 0000.0001) %MON dynstat_salt_del2            =   1.2019895313458E-06
(PID.TID 0000.0001) %MON advcfl_uvel_max              =   3.0912096638048E-03
(PID.TID 0000.0001) %MON advcfl_vvel_max              =   2.1519881105690E-03
(PID.TID 0000.0001) %MON advcfl_wvel_max              =   7.4792906353987E-03
(PID.TID 0000.0001) %MON advcfl_W_hf_max              =   7.4792906353987E-03
(PID.TID 0000.0001) %MON pe_b_mean                    =  -6.8203736736284E-01
(PID.TID 0000.0001) %MON ke_max                       =   3.7790837403535E-04
(PID.TID 0000.0001) %MON ke_mean                      =   4.3186580759481E-07
(PID.TID 0000.0001) %MON ke_vol                       =   4.6183055200150E+12
(PID.TID 0000.0001) // =======================================================
(PID.TID 0000.0001) // End MONITOR dynamic field statistics
(PID.TID 0000.0001) // =======================================================
(PID.TID 0000.0001) // =======================================================
(PID.TID 0000.0001) // Begin OBCS MONITOR field statistics
(PID.TID 0000.0001) // =======================================================
(PID.TID 0000.0001) %MON obc_N_vVel_max               =   1.2786644954203E-07
(PID.TID 0000.0001) %MON obc_N_vVel_min               =   1.2786644954203E-07
(PID.TID 0000.0001) %MON obc_N_vVel_mean              =   1.2786644954203E-07
(PID.TID 0000.0001) %MON obc_N_vVel_sd                =  -1.2053794631777E-27
(PID.TID 0000.0001) %MON obc_N_vVel_Int               =   8.4391856697742E+00
(PID.TID 0000.0001) // =======================================================
(PID.TID 0000.0001) // End OBCS MONITOR field statistics
(PID.TID 0000.0001) // =======================================================
 cg2d: Sum(rhs),rhsMax =   3.00881949916324E+00  4.53044099154530E+02
(PID.TID 0000.0001)      cg2d_init_res =   3.51575218267749E-06
(PID.TID 0000.0001)      cg2d_iters(min,last) =      -1      75
(PID.TID 0000.0001)      cg2d_last_res =   8.50815408608575E-12
(PID.TID 0000.0001) // =======================================================
(PID.TID 0000.0001) // Begin MONITOR dynamic field statistics
(PID.TID 0000.0001) // =======================================================
(PID.TID 0000.0001) %MON time_tsnumber                =                  1159
(PID.TID 0000.0001) %MON time_secondsf                =   1.1590000000000E+05
(PID.TID 0000.0001) %MON dynstat_eta_max              =   5.7986779265072E+00
(PID.TID 0000.0001) %MON dynstat_eta_min              =  -1.4171193185238E+01
(PID.TID 0000.0001) %MON dynstat_eta_mean             =  -2.5243109620685E+00
(PID.TID 0000.0001) %MON dynstat_eta_sd               =   4.9411454409064E+00
(PID.TID 0000.0001) %MON dynstat_eta_del2             =   1.9058696106162E-01
(PID.TID 0000.0001) %MON dynstat_uvel_max             =   6.6177028111101E-03
(PID.TID 0000.0001) %MON dynstat_uvel_min             =  -3.0982716059604E-02
(PID.TID 0000.0001) %MON dynstat_uvel_mean            =   1.5066827575327E-09
(PID.TID 0000.0001) %MON dynstat_uvel_sd              =   8.4445336278651E-04
(PID.TID 0000.0001) %MON dynstat_uvel_del2            =   1.2928486790469E-06
(PID.TID 0000.0001) %MON dynstat_vvel_max             =   2.1559497863912E-02
(PID.TID 0000.0001) %MON dynstat_vvel_min             =  -8.0369144189065E-03
(PID.TID 0000.0001) %MON dynstat_vvel_mean            =   1.7284754275217E-07
(PID.TID 0000.0001) %MON dynstat_vvel_sd              =   4.1003431882556E-04
(PID.TID 0000.0001) %MON dynstat_vvel_del2            =   1.0875493263597E-06
(PID.TID 0000.0001) %MON dynstat_wvel_max             =   1.2519053714349E-03
(PID.TID 0000.0001) %MON dynstat_wvel_min             =  -1.5000265382978E-03
(PID.TID 0000.0001) %MON dynstat_wvel_mean            =   3.0898930292055E-10
(PID.TID 0000.0001) %MON dynstat_wvel_sd              =   2.0565941176736E-05
(PID.TID 0000.0001) %MON dynstat_wvel_del2            =   8.5311539220839E-08
(PID.TID 0000.0001) %MON dynstat_theta_max            =   1.2000000000000E+00
(PID.TID 0000.0001) %MON dynstat_theta_min            =  -1.0000000000000E+00
(PID.TID 0000.0001) %MON dynstat_theta_mean           =   5.6512903714678E-01
(PID.TID 0000.0001) %MON dynstat_theta_sd             =   8.4893908554539E-01
(PID.TID 0000.0001) %MON dynstat_theta_del2           =   3.0450165612625E-06
(PID.TID 0000.0001) %MON dynstat_salt_max             =   3.4700000000000E+01
(PID.TID 0000.0001) %MON dynstat_salt_min             =   3.4000000000000E+01
(PID.TID 0000.0001) %MON dynstat_salt_mean            =   3.4497965618607E+01
(PID.TID 0000.0001) %MON dynstat_salt_sd              =   2.7011251553816E-01
(PID.TID 0000.0001) %MON dynstat_salt_del2            =   1.2044453758257E-06
(PID.TID 0000.0001) %MON advcfl_uvel_max              =   3.0982716059604E-03
(PID.TID 0000.0001) %MON advcfl_vvel_max              =   2.1559497863912E-03
(PID.TID 0000.0001) %MON advcfl_wvel_max              =   7.5001326914891E-03
(PID.TID 0000.0001) %MON advcfl_W_hf_max              =   7.5001326914891E-03
(PID.TID 0000.0001) %MON pe_b_mean                    =  -6.8203553290713E-01
(PID.TID 0000.0001) %MON ke_max                       =   3.7994434984049E-04
(PID.TID 0000.0001) %MON ke_mean                      =   4.3390970868403E-07
(PID.TID 0000.0001) %MON ke_vol                       =   4.6183055564386E+12
(PID.TID 0000.0001) // =======================================================
(PID.TID 0000.0001) // End MONITOR dynamic field statistics
(PID.TID 0000.0001) // =======================================================
(PID.TID 0000.0001) // =======================================================
(PID.TID 0000.0001) // Begin OBCS MONITOR field statistics
(PID.TID 0000.0001) // =======================================================
(PID.TID 0000.0001) %MON obc_N_vVel_max               =   1.3433042569275E-07
(PID.TID 0000.0001) %MON obc_N_vVel_min               =   1.3433042569275E-07
(PID.TID 0000.0001) %MON obc_N_vVel_mean              =   1.3433042569275E-07
(PID.TID 0000.0001) %MON obc_N_vVel_sd                =  -7.1628570194068E-28
(PID.TID 0000.0001) %MON obc_N_vVel_Int               =   8.8658080957216E+00
(PID.TID 0000.0001) // =======================================================
(PID.TID 0000.0001) // End OBCS MONITOR field statistics
(PID.TID 0000.0001) // =======================================================
 cg2d: Sum(rhs),rhsMax =   3.00881223357241E+00  4.53044090839589E+02
(PID.TID 0000.0001)      cg2d_init_res =   3.52175840435169E-06
(PID.TID 0000.0001)      cg2d_iters(min,last) =      -1      75
(PID.TID 0000.0001)      cg2d_last_res =   8.52586860922164E-12
(PID.TID 0000.0001) // =======================================================
(PID.TID 0000.0001) // Begin MONITOR dynamic field statistics
(PID.TID 0000.0001) // =======================================================
(PID.TID 0000.0001) %MON time_tsnumber                =                  1160
(PID.TID 0000.0001) %MON time_secondsf                =   1.1600000000000E+05
(PID.TID 0000.0001) %MON dynstat_eta_max              =   5.7986804055653E+00
(PID.TID 0000.0001) %MON dynstat_eta_min              =  -1.4171180043666E+01
(PID.TID 0000.0001) %MON dynstat_eta_mean             =  -2.5243048201219E+00
(PID.TID 0000.0001) %MON dynstat_eta_sd               =   4.9411436842980E+00
(PID.TID 0000.0001) %MON dynstat_eta_del2             =   1.9058698000748E-01
(PID.TID 0000.0001) %MON dynstat_uvel_max             =   6.6339159659856E-03
(PID.TID 0000.0001) %MON dynstat_uvel_min             =  -3.1053403662202E-02
(PID.TID 0000.0001) %MON dynstat_uvel_mean            =   1.6032697047566E-09
(PID.TID 0000.0001) %MON dynstat_uvel_sd              =   8.4652342689647E-04
(PID.TID 0000.0001) %MON dynstat_uvel_del2            =   1.2960045054108E-06
(PID.TID 0000.0001) %MON dynstat_vvel_max             =   2.1599137273865E-02
(PID.TID 0000.0001) %MON dynstat_vvel_min             =  -8.0552655819965E-03
(PID.TID 0000.0001) %MON dynstat_vvel_mean            =   1.7609005077614E-07
(PID.TID 0000.0001) %MON dynstat_vvel_sd              =   4.1085129185873E-04
(PID.TID 0000.0001) %MON dynstat_vvel_del2            =   1.0897706447643E-06
(PID.TID 0000.0001) %MON dynstat_wvel_max             =   1.2547127756896E-03
(PID.TID 0000.0001) %MON dynstat_wvel_min             =  -1.5042019330185E-03
(PID.TID 0000.0001) %MON dynstat_wvel_mean            =   2.9323203575483E-10
(PID.TID 0000.0001) %MON dynstat_wvel_sd              =   2.0592197181654E-05
(PID.TID 0000.0001) %MON dynstat_wvel_del2            =   8.5365823713349E-08
(PID.TID 0000.0001) %MON dynstat_theta_max            =   1.2000000000000E+00
(PID.TID 0000.0001) %MON dynstat_theta_min            =  -1.0000000000000E+00
(PID.TID 0000.0001) %MON dynstat_theta_mean           =   5.6512833766040E-01
(PID.TID 0000.0001) %MON dynstat_theta_sd             =   8.4893877667153E-01
(PID.TID 0000.0001) %MON dynstat_theta_del2           =   3.0512296315872E-06
(PID.TID 0000.0001) %MON dynstat_salt_max             =   3.4700000000000E+01
(PID.TID 0000.0001) %MON dynstat_salt_min             =   3.4000000000000E+01
(PID.TID 0000.0001) %MON dynstat_salt_mean            =   3.4497965339274E+01
(PID.TID 0000.0001) %MON dynstat_salt_sd              =   2.7011239906489E-01
(PID.TID 0000.0001) %MON dynstat_salt_del2            =   1.2069072214946E-06
(PID.TID 0000.0001) %MON advcfl_uvel_max              =   3.1053403662202E-03
(PID.TID 0000.0001) %MON advcfl_vvel_max              =   2.1599137273865E-03
(PID.TID 0000.0001) %MON advcfl_wvel_max              =   7.5210096650924E-03
(PID.TID 0000.0001) %MON advcfl_W_hf_max              =   7.5210096650924E-03
(PID.TID 0000.0001) %MON pe_b_mean                    =  -6.8203369557324E-01
(PID.TID 0000.0001) %MON ke_max                       =   3.8198956417733E-04
(PID.TID 0000.0001) %MON ke_mean                      =   4.3596233406562E-07
(PID.TID 0000.0001) %MON ke_vol                       =   4.6183055928853E+12
(PID.TID 0000.0001) // =======================================================
(PID.TID 0000.0001) // End MONITOR dynamic field statistics
(PID.TID 0000.0001) // =======================================================
(PID.TID 0000.0001) // =======================================================
(PID.TID 0000.0001) // Begin OBCS MONITOR field statistics
(PID.TID 0000.0001) // =======================================================
(PID.TID 0000.0001) %MON obc_N_vVel_max               =   1.3879919931007E-07
(PID.TID 0000.0001) %MON obc_N_vVel_min               =   1.3879919931007E-07
(PID.TID 0000.0001) %MON obc_N_vVel_mean              =   1.3879919931007E-07
(PID.TID 0000.0001) %MON obc_N_vVel_sd                =  -1.1675141397271E-28
(PID.TID 0000.0001) %MON obc_N_vVel_Int               =   9.1607471544643E+00
(PID.TID 0000.0001) // =======================================================
(PID.TID 0000.0001) // End OBCS MONITOR field statistics
(PID.TID 0000.0001) // =======================================================
 cg2d: Sum(rhs),rhsMax =   3.00880496274593E+00  4.53044081800101E+02
(PID.TID 0000.0001)      cg2d_init_res =   3.52784590077880E-06
(PID.TID 0000.0001)      cg2d_iters(min,last) =      -1      75
(PID.TID 0000.0001)      cg2d_last_res =   8.54419569329435E-12
(PID.TID 0000.0001) // =======================================================
(PID.TID 0000.0001) // Begin MONITOR dynamic field statistics
(PID.TID 0000.0001) // =======================================================
(PID.TID 0000.0001) %MON time_tsnumber                =                  1161
(PID.TID 0000.0001) %MON time_secondsf                =   1.1610000000000E+05
(PID.TID 0000.0001) %MON dynstat_eta_max              =   5.7986828830244E+00
(PID.TID 0000.0001) %MON dynstat_eta_min              =  -1.4171166881555E+01
(PID.TID 0000.0001) %MON dynstat_eta_mean             =  -2.5242986697460E+00
(PID.TID 0000.0001) %MON dynstat_eta_sd               =   4.9411419237034E+00
(PID.TID 0000.0001) %MON dynstat_eta_del2             =   1.9058699899047E-01
(PID.TID 0000.0001) %MON dynstat_uvel_max             =   6.6501631239992E-03
(PID.TID 0000.0001) %MON dynstat_uvel_min             =  -3.1124159160250E-02
(PID.TID 0000.0001) %MON dynstat_uvel_mean            =   1.7015602616907E-09
(PID.TID 0000.0001) %MON dynstat_uvel_sd              =   8.4859770069999E-04
(PID.TID 0000.0001) %MON dynstat_uvel_del2            =   1.2991677442639E-06
(PID.TID 0000.0001) %MON dynstat_vvel_max             =   2.1638799229778E-02
(PID.TID 0000.0001) %MON dynstat_vvel_min             =  -8.0736417110363E-03
(PID.TID 0000.0001) %MON dynstat_vvel_mean            =   1.7720077557643E-07
(PID.TID 0000.0001) %MON dynstat_vvel_sd              =   4.1166946814677E-04
(PID.TID 0000.0001) %MON dynstat_vvel_del2            =   1.0919903049247E-06
(PID.TID 0000.0001) %MON dynstat_wvel_max             =   1.2575237782365E-03
(PID.TID 0000.0001) %MON dynstat_wvel_min             =  -1.5083842936906E-03
(PID.TID 0000.0001) %MON dynstat_wvel_mean            =   2.7779440481426E-10
(PID.TID 0000.0001) %MON dynstat_wvel_sd              =   2.0617354976476E-05
(PID.TID 0000.0001) %MON dynstat_wvel_del2            =   8.5405486189959E-08
(PID.TID 0000.0001) %MON dynstat_theta_max            =   1.2000000000000E+00
(PID.TID 0000.0001) %MON dynstat_theta_min            =  -1.0000000000000E+00
(PID.TID 0000.0001) %MON dynstat_theta_mean           =   5.6512763695341E-01
(PID.TID 0000.0001) %MON dynstat_theta_sd             =   8.4893846717537E-01
(PID.TID 0000.0001) %MON dynstat_theta_del2           =   3.0574581039250E-06
(PID.TID 0000.0001) %MON dynstat_salt_max             =   3.4700000000000E+01
(PID.TID 0000.0001) %MON dynstat_salt_min             =   3.4000000000000E+01
(PID.TID 0000.0001) %MON dynstat_salt_mean            =   3.4497965059451E+01
(PID.TID 0000.0001) %MON dynstat_salt_sd              =   2.7011228235297E-01
(PID.TID 0000.0001) %MON dynstat_salt_del2            =   1.2093743976357E-06
(PID.TID 0000.0001) %MON advcfl_uvel_max              =   3.1124159160250E-03
(PID.TID 0000.0001) %MON advcfl_vvel_max              =   2.1638799229778E-03
(PID.TID 0000.0001) %MON advcfl_wvel_max              =   7.5419214684529E-03
(PID.TID 0000.0001) %MON advcfl_W_hf_max              =   7.5419214684529E-03
(PID.TID 0000.0001) %MON pe_b_mean                    =  -6.8203185489600E-01
(PID.TID 0000.0001) %MON ke_max                       =   3.8404405086635E-04
(PID.TID 0000.0001) %MON ke_mean                      =   4.3802383161931E-07
(PID.TID 0000.0001) %MON ke_vol                       =   4.6183056293685E+12
(PID.TID 0000.0001) // =======================================================
(PID.TID 0000.0001) // End MONITOR dynamic field statistics
(PID.TID 0000.0001) // =======================================================
(PID.TID 0000.0001) // =======================================================
(PID.TID 0000.0001) // Begin OBCS MONITOR field statistics
(PID.TID 0000.0001) // =======================================================
(PID.TID 0000.0001) %MON obc_N_vVel_max               =   1.4121626847566E-07
(PID.TID 0000.0001) %MON obc_N_vVel_min               =   1.4121626847566E-07
(PID.TID 0000.0001) %MON obc_N_vVel_mean              =   1.4121626847566E-07
(PID.TID 0000.0001) %MON obc_N_vVel_sd                =   3.5259676496365E-14
(PID.TID 0000.0001) %MON obc_N_vVel_Int               =   9.3202737193934E+00
(PID.TID 0000.0001) // =======================================================
(PID.TID 0000.0001) // End OBCS MONITOR field statistics
(PID.TID 0000.0001) // =======================================================
 cg2d: Sum(rhs),rhsMax =   3.00879768429198E+00  4.53044071978756E+02
(PID.TID 0000.0001)      cg2d_init_res =   3.53405877483277E-06
(PID.TID 0000.0001)      cg2d_iters(min,last) =      -1      75
(PID.TID 0000.0001)      cg2d_last_res =   8.56318001713974E-12
(PID.TID 0000.0001) // =======================================================
(PID.TID 0000.0001) // Begin MONITOR dynamic field statistics
(PID.TID 0000.0001) // =======================================================
(PID.TID 0000.0001) %MON time_tsnumber                =                  1162
(PID.TID 0000.0001) %MON time_secondsf                =   1.1620000000000E+05
(PID.TID 0000.0001) %MON dynstat_eta_max              =   5.7986853626995E+00
(PID.TID 0000.0001) %MON dynstat_eta_min              =  -1.4171153694635E+01
(PID.TID 0000.0001) %MON dynstat_eta_mean             =  -2.5242925086146E+00
(PID.TID 0000.0001) %MON dynstat_eta_sd               =   4.9411401583357E+00
(PID.TID 0000.0001) %MON dynstat_eta_del2             =   1.9058701800796E-01
(PID.TID 0000.0001) %MON dynstat_uvel_max             =   6.6664443003495E-03
(PID.TID 0000.0001) %MON dynstat_uvel_min             =  -3.1194982268190E-02
(PID.TID 0000.0001) %MON dynstat_uvel_mean            =   1.8003453924151E-09
(PID.TID 0000.0001) %MON dynstat_uvel_sd              =   8.5067619346215E-04
(PID.TID 0000.0001) %MON dynstat_uvel_del2            =   1.3023384031989E-06
(PID.TID 0000.0001) %MON dynstat_vvel_max             =   2.1678483629784E-02
(PID.TID 0000.0001) %MON dynstat_vvel_min             =  -8.0920427441327E-03
(PID.TID 0000.0001) %MON dynstat_vvel_mean            =   1.7617100891998E-07
(PID.TID 0000.0001) %MON dynstat_vvel_sd              =   4.1248913512242E-04
(PID.TID 0000.0001) %MON dynstat_vvel_del2            =   1.0942107575211E-06
(PID.TID 0000.0001) %MON dynstat_wvel_max             =   1.2603383752055E-03
(PID.TID 0000.0001) %MON dynstat_wvel_min             =  -1.5125736028619E-03
(PID.TID 0000.0001) %MON dynstat_wvel_mean            =   2.6289694897240E-10
(PID.TID 0000.0001) %MON dynstat_wvel_sd              =   2.0642546652913E-05
(PID.TID 0000.0001) %MON dynstat_wvel_del2            =   8.5437687235625E-08
(PID.TID 0000.0001) %MON dynstat_theta_max            =   1.2000000000000E+00
(PID.TID 0000.0001) %MON dynstat_theta_min            =  -1.0000000000000E+00
(PID.TID 0000.0001) %MON dynstat_theta_mean           =   5.6512693502318E-01
(PID.TID 0000.0001) %MON dynstat_theta_sd             =   8.4893815705543E-01
(PID.TID 0000.0001) %MON dynstat_theta_del2           =   3.0636989983593E-06
(PID.TID 0000.0001) %MON dynstat_salt_max             =   3.4700000000000E+01
(PID.TID 0000.0001) %MON dynstat_salt_min             =   3.4000000000000E+01
(PID.TID 0000.0001) %MON dynstat_salt_mean            =   3.4497964779138E+01
(PID.TID 0000.0001) %MON dynstat_salt_sd              =   2.7011216540205E-01
(PID.TID 0000.0001) %MON dynstat_salt_del2            =   1.2118461703578E-06
(PID.TID 0000.0001) %MON advcfl_uvel_max              =   3.1194982268190E-03
(PID.TID 0000.0001) %MON advcfl_vvel_max              =   2.1678483629784E-03
(PID.TID 0000.0001) %MON advcfl_wvel_max              =   7.5628680143093E-03
(PID.TID 0000.0001) %MON advcfl_W_hf_max              =   7.5628680143093E-03
(PID.TID 0000.0001) %MON pe_b_mean                    =  -6.8203001041013E-01
(PID.TID 0000.0001) %MON ke_max                       =   3.8610784386261E-04
(PID.TID 0000.0001) %MON ke_mean                      =   4.4009435628613E-07
(PID.TID 0000.0001) %MON ke_vol                       =   4.6183056659017E+12
(PID.TID 0000.0001) // =======================================================
(PID.TID 0000.0001) // End MONITOR dynamic field statistics
(PID.TID 0000.0001) // =======================================================
(PID.TID 0000.0001) // =======================================================
(PID.TID 0000.0001) // Begin OBCS MONITOR field statistics
(PID.TID 0000.0001) // =======================================================
(PID.TID 0000.0001) %MON obc_N_vVel_max               =   1.4155397575458E-07
(PID.TID 0000.0001) %MON obc_N_vVel_min               =   1.4155397575457E-07
(PID.TID 0000.0001) %MON obc_N_vVel_mean              =   1.4155397575458E-07
(PID.TID 0000.0001) %MON obc_N_vVel_sd                =  -7.0997481469891E-28
(PID.TID 0000.0001) %MON obc_N_vVel_Int               =   9.3425623998020E+00
(PID.TID 0000.0001) // =======================================================
(PID.TID 0000.0001) // End OBCS MONITOR field statistics
(PID.TID 0000.0001) // =======================================================
 cg2d: Sum(rhs),rhsMax =   3.00879039575427E+00  4.53044061328327E+02
(PID.TID 0000.0001)      cg2d_init_res =   3.54045022400232E-06
(PID.TID 0000.0001)      cg2d_iters(min,last) =      -1      75
(PID.TID 0000.0001)      cg2d_last_res =   8.58278885336600E-12
(PID.TID 0000.0001) // =======================================================
(PID.TID 0000.0001) // Begin MONITOR dynamic field statistics
(PID.TID 0000.0001) // =======================================================
(PID.TID 0000.0001) %MON time_tsnumber                =                  1163
(PID.TID 0000.0001) %MON time_secondsf                =   1.1630000000000E+05
(PID.TID 0000.0001) %MON dynstat_eta_max              =   5.7986878483665E+00
(PID.TID 0000.0001) %MON dynstat_eta_min              =  -1.4171140478698E+01
(PID.TID 0000.0001) %MON dynstat_eta_mean             =  -2.5242863344040E+00
(PID.TID 0000.0001) %MON dynstat_eta_sd               =   4.9411383874358E+00
(PID.TID 0000.0001) %MON dynstat_eta_del2             =   1.9058703705742E-01
(PID.TID 0000.0001) %MON dynstat_uvel_max             =   6.6827595093315E-03
(PID.TID 0000.0001) %MON dynstat_uvel_min             =  -3.1265872700486E-02
(PID.TID 0000.0001) %MON dynstat_uvel_mean            =   1.8984041759639E-09
(PID.TID 0000.0001) %MON dynstat_uvel_sd              =   8.5275891447226E-04
(PID.TID 0000.0001) %MON dynstat_uvel_del2            =   1.3055164897361E-06
(PID.TID 0000.0001) %MON dynstat_vvel_max             =   2.1718190375921E-02
(PID.TID 0000.0001) %MON dynstat_vvel_min             =  -8.1104686137796E-03
(PID.TID 0000.0001) %MON dynstat_vvel_mean            =   1.7302221079267E-07
(PID.TID 0000.0001) %MON dynstat_vvel_sd              =   4.1331057846584E-04
(PID.TID 0000.0001) %MON dynstat_vvel_del2            =   1.0964345298903E-06
(PID.TID 0000.0001) %MON dynstat_wvel_max             =   1.2631565626351E-03
(PID.TID 0000.0001) %MON dynstat_wvel_min             =  -1.5167698431365E-03
(PID.TID 0000.0001) %MON dynstat_wvel_mean            =   2.4875272980742E-10
(PID.TID 0000.0001) %MON dynstat_wvel_sd              =   2.0668898637983E-05
(PID.TID 0000.0001) %MON dynstat_wvel_del2            =   8.5469999234176E-08
(PID.TID 0000.0001) %MON dynstat_theta_max            =   1.2000000000000E+00
(PID.TID 0000.0001) %MON dynstat_theta_min            =  -1.0000000000000E+00
(PID.TID 0000.0001) %MON dynstat_theta_mean           =   5.6512623186708E-01
(PID.TID 0000.0001) %MON dynstat_theta_sd             =   8.4893784631081E-01
(PID.TID 0000.0001) %MON dynstat_theta_del2           =   3.0699492904578E-06
(PID.TID 0000.0001) %MON dynstat_salt_max             =   3.4700000000000E+01
(PID.TID 0000.0001) %MON dynstat_salt_min             =   3.4000000000000E+01
(PID.TID 0000.0001) %MON dynstat_salt_mean            =   3.4497964498333E+01
(PID.TID 0000.0001) %MON dynstat_salt_sd              =   2.7011204821170E-01
(PID.TID 0000.0001) %MON dynstat_salt_del2            =   1.2143217819490E-06
(PID.TID 0000.0001) %MON advcfl_uvel_max              =   3.1265872700486E-03
(PID.TID 0000.0001) %MON advcfl_vvel_max              =   2.1718190375921E-03
(PID.TID 0000.0001) %MON advcfl_wvel_max              =   7.5838492156826E-03
(PID.TID 0000.0001) %MON advcfl_W_hf_max              =   7.5838492156826E-03
(PID.TID 0000.0001) %MON pe_b_mean                    =  -6.8202816165693E-01
(PID.TID 0000.0001) %MON ke_max                       =   3.8818097725449E-04
(PID.TID 0000.0001) %MON ke_mean                      =   4.4217406339792E-07
(PID.TID 0000.0001) %MON ke_vol                       =   4.6183057024988E+12
(PID.TID 0000.0001) // =======================================================
(PID.TID 0000.0001) // End MONITOR dynamic field statistics
(PID.TID 0000.0001) // =======================================================
(PID.TID 0000.0001) // =======================================================
(PID.TID 0000.0001) // Begin OBCS MONITOR field statistics
(PID.TID 0000.0001) // =======================================================
(PID.TID 0000.0001) %MON obc_N_vVel_max               =   1.3981394003492E-07
(PID.TID 0000.0001) %MON obc_N_vVel_min               =   1.3981394003492E-07
(PID.TID 0000.0001) %MON obc_N_vVel_mean              =   1.3981394003492E-07
(PID.TID 0000.0001) %MON obc_N_vVel_sd                =  -7.4784013814952E-28
(PID.TID 0000.0001) %MON obc_N_vVel_Int               =   9.2277200423049E+00
(PID.TID 0000.0001) // =======================================================
(PID.TID 0000.0001) // End OBCS MONITOR field statistics
(PID.TID 0000.0001) // =======================================================
 cg2d: Sum(rhs),rhsMax =   3.00878309464412E+00  4.53044049812488E+02
(PID.TID 0000.0001)      cg2d_init_res =   3.54706961739347E-06
(PID.TID 0000.0001)      cg2d_iters(min,last) =      -1      75
(PID.TID 0000.0001)      cg2d_last_res =   8.60301853488154E-12
(PID.TID 0000.0001) // =======================================================
(PID.TID 0000.0001) // Begin MONITOR dynamic field statistics
(PID.TID 0000.0001) // =======================================================
(PID.TID 0000.0001) %MON time_tsnumber                =                  1164
(PID.TID 0000.0001) %MON time_secondsf                =   1.1640000000000E+05
(PID.TID 0000.0001) %MON dynstat_eta_max              =   5.7986903436986E+00
(PID.TID 0000.0001) %MON dynstat_eta_min              =  -1.4171127229625E+01
(PID.TID 0000.0001) %MON dynstat_eta_mean             =  -2.5242801448239E+00
(PID.TID 0000.0001) %MON dynstat_eta_sd               =   4.9411366102830E+00
(PID.TID 0000.0001) %MON dynstat_eta_del2             =   1.9058705613646E-01
(PID.TID 0000.0001) %MON dynstat_uvel_max             =   6.6991087642529E-03
(PID.TID 0000.0001) %MON dynstat_uvel_min             =  -3.1336830171548E-02
(PID.TID 0000.0001) %MON dynstat_uvel_mean            =   1.9945254209688E-09
(PID.TID 0000.0001) %MON dynstat_uvel_sd              =   8.5484587306944E-04
(PID.TID 0000.0001) %MON dynstat_uvel_del2            =   1.3087020116805E-06
(PID.TID 0000.0001) %MON dynstat_vvel_max             =   2.1757919373921E-02
(PID.TID 0000.0001) %MON dynstat_vvel_min             =  -8.1289192470209E-03
(PID.TID 0000.0001) %MON dynstat_vvel_mean            =   1.6780574831285E-07
(PID.TID 0000.0001) %MON dynstat_vvel_sd              =   4.1413406614841E-04
(PID.TID 0000.0001) %MON dynstat_vvel_del2            =   1.0986640869953E-06
(PID.TID 0000.0001) %MON dynstat_wvel_max             =   1.2659783364744E-03
(PID.TID 0000.0001) %MON dynstat_wvel_min             =  -1.5209729971903E-03
(PID.TID 0000.0001) %MON dynstat_wvel_mean            =   2.3556490195425E-10
(PID.TID 0000.0001) %MON dynstat_wvel_sd              =   2.0697464214959E-05
(PID.TID 0000.0001) %MON dynstat_wvel_del2            =   8.5509948498998E-08
(PID.TID 0000.0001) %MON dynstat_theta_max            =   1.2000000000000E+00
(PID.TID 0000.0001) %MON dynstat_theta_min            =  -1.0000000000000E+00
(PID.TID 0000.0001) %MON dynstat_theta_mean           =   5.6512552748229E-01
(PID.TID 0000.0001) %MON dynstat_theta_sd             =   8.4893753494125E-01
(PID.TID 0000.0001) %MON dynstat_theta_del2           =   3.0762060615349E-06
(PID.TID 0000.0001) %MON dynstat_salt_max             =   3.4700000000000E+01
(PID.TID 0000.0001) %MON dynstat_salt_min             =   3.4000000000000E+01
(PID.TID 0000.0001) %MON dynstat_salt_mean            =   3.4497964217036E+01
(PID.TID 0000.0001) %MON dynstat_salt_sd              =   2.7011193078161E-01
(PID.TID 0000.0001) %MON dynstat_salt_del2            =   1.2168005022549E-06
(PID.TID 0000.0001) %MON advcfl_uvel_max              =   3.1336830171548E-03
(PID.TID 0000.0001) %MON advcfl_vvel_max              =   2.1757919373921E-03
(PID.TID 0000.0001) %MON advcfl_wvel_max              =   7.6048649859514E-03
(PID.TID 0000.0001) %MON advcfl_W_hf_max              =   7.6048649859514E-03
(PID.TID 0000.0001) %MON pe_b_mean                    =  -6.8202630819047E-01
(PID.TID 0000.0001) %MON ke_max                       =   3.9026348525906E-04
(PID.TID 0000.0001) %MON ke_mean                      =   4.4426310208862E-07
(PID.TID 0000.0001) %MON ke_vol                       =   4.6183057391736E+12
(PID.TID 0000.0001) // =======================================================
(PID.TID 0000.0001) // End MONITOR dynamic field statistics
(PID.TID 0000.0001) // =======================================================
(PID.TID 0000.0001) // =======================================================
(PID.TID 0000.0001) // Begin OBCS MONITOR field statistics
(PID.TID 0000.0001) // =======================================================
(PID.TID 0000.0001) %MON obc_N_vVel_max               =   1.3602703496202E-07
(PID.TID 0000.0001) %MON obc_N_vVel_min               =   1.3602703496201E-07
(PID.TID 0000.0001) %MON obc_N_vVel_mean              =   1.3602703496201E-07
(PID.TID 0000.0001) %MON obc_N_vVel_sd                =   4.4159530768639E-14
(PID.TID 0000.0001) %MON obc_N_vVel_Int               =   8.9777843074927E+00
(PID.TID 0000.0001) // =======================================================
(PID.TID 0000.0001) // End OBCS MONITOR field statistics
(PID.TID 0000.0001) // =======================================================
 cg2d: Sum(rhs),rhsMax =   3.00877577847361E+00  4.53044037406540E+02
(PID.TID 0000.0001)      cg2d_init_res =   3.55396210883769E-06
(PID.TID 0000.0001)      cg2d_iters(min,last) =      -1      75
(PID.TID 0000.0001)      cg2d_last_res =   8.62385801451845E-12
(PID.TID 0000.0001) // =======================================================
(PID.TID 0000.0001) // Begin MONITOR dynamic field statistics
(PID.TID 0000.0001) // =======================================================
(PID.TID 0000.0001) %MON time_tsnumber                =                  1165
(PID.TID 0000.0001) %MON time_secondsf                =   1.1650000000000E+05
(PID.TID 0000.0001) %MON dynstat_eta_max              =   5.7986928522158E+00
(PID.TID 0000.0001) %MON dynstat_eta_min              =  -1.4171113943504E+01
(PID.TID 0000.0001) %MON dynstat_eta_mean             =  -2.5242739376494E+00
(PID.TID 0000.0001) %MON dynstat_eta_sd               =   4.9411348262034E+00
(PID.TID 0000.0001) %MON dynstat_eta_del2             =   1.9058707524278E-01
(PID.TID 0000.0001) %MON dynstat_uvel_max             =   6.7154920775456E-03
(PID.TID 0000.0001) %MON dynstat_uvel_min             =  -3.1407854395536E-02
(PID.TID 0000.0001) %MON dynstat_uvel_mean            =   2.0875199112967E-09
(PID.TID 0000.0001) %MON dynstat_uvel_sd              =   8.5693707865721E-04
(PID.TID 0000.0001) %MON dynstat_uvel_del2            =   1.3118949773072E-06
(PID.TID 0000.0001) %MON dynstat_vvel_max             =   2.1797670533418E-02
(PID.TID 0000.0001) %MON dynstat_vvel_min             =  -8.1473945654873E-03
(PID.TID 0000.0001) %MON dynstat_vvel_mean            =   1.6060220817835E-07
(PID.TID 0000.0001) %MON dynstat_vvel_sd              =   4.1495983372960E-04
(PID.TID 0000.0001) %MON dynstat_vvel_del2            =   1.1009016987146E-06
(PID.TID 0000.0001) %MON dynstat_wvel_max             =   1.2688036925781E-03
(PID.TID 0000.0001) %MON dynstat_wvel_min             =  -1.5251830477374E-03
(PID.TID 0000.0001) %MON dynstat_wvel_mean            =   2.2352308356751E-10
(PID.TID 0000.0001) %MON dynstat_wvel_sd              =   2.0729160443772E-05
(PID.TID 0000.0001) %MON dynstat_wvel_del2            =   8.5564557509772E-08
(PID.TID 0000.0001) %MON dynstat_theta_max            =   1.2000000000000E+00
(PID.TID 0000.0001) %MON dynstat_theta_min            =  -1.0000000000000E+00
(PID.TID 0000.0001) %MON dynstat_theta_mean           =   5.6512482186586E-01
(PID.TID 0000.0001) %MON dynstat_theta_sd             =   8.4893722294564E-01
(PID.TID 0000.0001) %MON dynstat_theta_del2           =   3.0824666628864E-06
(PID.TID 0000.0001) %MON dynstat_salt_max             =   3.4700000000000E+01
(PID.TID 0000.0001) %MON dynstat_salt_min             =   3.4000000000000E+01
(PID.TID 0000.0001) %MON dynstat_salt_mean            =   3.4497963935245E+01
(PID.TID 0000.0001) %MON dynstat_salt_sd              =   2.7011181311159E-01
(PID.TID 0000.0001) %MON dynstat_salt_del2            =   1.2192816673254E-06
(PID.TID 0000.0001) %MON advcfl_uvel_max              =   3.1407854395536E-03
(PID.TID 0000.0001) %MON advcfl_vvel_max              =   2.1797670533418E-03
(PID.TID 0000.0001) %MON advcfl_wvel_max              =   7.6259152386872E-03
(PID.TID 0000.0001) %MON advcfl_W_hf_max              =   7.6259152386872E-03
(PID.TID 0000.0001) %MON pe_b_mean                    =  -6.8202444958368E-01
(PID.TID 0000.0001) %MON ke_max                       =   3.9235540222319E-04
(PID.TID 0000.0001) %MON ke_mean                      =   4.4636160913714E-07
(PID.TID 0000.0001) %MON ke_vol                       =   4.6183057759397E+12
(PID.TID 0000.0001) // =======================================================
(PID.TID 0000.0001) // End MONITOR dynamic field statistics
(PID.TID 0000.0001) // =======================================================
(PID.TID 0000.0001) // =======================================================
(PID.TID 0000.0001) // Begin OBCS MONITOR field statistics
(PID.TID 0000.0001) // =======================================================
(PID.TID 0000.0001) %MON obc_N_vVel_max               =   1.3025304495837E-07
(PID.TID 0000.0001) %MON obc_N_vVel_min               =   1.3025304495837E-07
(PID.TID 0000.0001) %MON obc_N_vVel_mean              =   1.3025304495837E-07
(PID.TID 0000.0001) %MON obc_N_vVel_sd                =  -1.3284417643922E-27
(PID.TID 0000.0001) %MON obc_N_vVel_Int               =   8.5967009672523E+00
(PID.TID 0000.0001) // =======================================================
(PID.TID 0000.0001) // End OBCS MONITOR field statistics
(PID.TID 0000.0001) // =======================================================
 cg2d: Sum(rhs),rhsMax =   3.00876844479483E+00  4.53044024097218E+02
(PID.TID 0000.0001)      cg2d_init_res =   3.56116457509614E-06
(PID.TID 0000.0001)      cg2d_iters(min,last) =      -1      75
(PID.TID 0000.0001)      cg2d_last_res =   8.64527347606493E-12
(PID.TID 0000.0001) // =======================================================
(PID.TID 0000.0001) // Begin MONITOR dynamic field statistics
(PID.TID 0000.0001) // =======================================================
(PID.TID 0000.0001) %MON time_tsnumber                =                  1166
(PID.TID 0000.0001) %MON time_secondsf                =   1.1660000000000E+05
(PID.TID 0000.0001) %MON dynstat_eta_max              =   5.7986953772538E+00
(PID.TID 0000.0001) %MON dynstat_eta_min              =  -1.4171100616620E+01
(PID.TID 0000.0001) %MON dynstat_eta_mean             =  -2.5242677107529E+00
(PID.TID 0000.0001) %MON dynstat_eta_sd               =   4.9411330345823E+00
(PID.TID 0000.0001) %MON dynstat_eta_del2             =   1.9058709437439E-01
(PID.TID 0000.0001) %MON dynstat_uvel_max             =   6.7319094606901E-03
(PID.TID 0000.0001) %MON dynstat_uvel_min             =  -3.1478945086182E-02
(PID.TID 0000.0001) %MON dynstat_uvel_mean            =   2.1762433772973E-09
(PID.TID 0000.0001) %MON dynstat_uvel_sd              =   8.5903254071830E-04
(PID.TID 0000.0001) %MON dynstat_uvel_del2            =   1.3150953957604E-06
(PID.TID 0000.0001) %MON dynstat_vvel_max             =   2.1837443767646E-02
(PID.TID 0000.0001) %MON dynstat_vvel_min             =  -8.1658944857028E-03
(PID.TID 0000.0001) %MON dynstat_vvel_mean            =   1.5152027976790E-07
(PID.TID 0000.0001) %MON dynstat_vvel_sd              =   4.1578807179225E-04
(PID.TID 0000.0001) %MON dynstat_vvel_del2            =   1.1031493215385E-06
(PID.TID 0000.0001) %MON dynstat_wvel_max             =   1.2716326267154E-03
(PID.TID 0000.0001) %MON dynstat_wvel_min             =  -1.5293999775702E-03
(PID.TID 0000.0001) %MON dynstat_wvel_mean            =   2.1280112131186E-10
(PID.TID 0000.0001) %MON dynstat_wvel_sd              =   2.0764713648530E-05
(PID.TID 0000.0001) %MON dynstat_wvel_del2            =   8.5639918593577E-08
(PID.TID 0000.0001) %MON dynstat_theta_max            =   1.2000000000000E+00
(PID.TID 0000.0001) %MON dynstat_theta_min            =  -1.0000000000000E+00
(PID.TID 0000.0001) %MON dynstat_theta_mean           =   5.6512411501480E-01
(PID.TID 0000.0001) %MON dynstat_theta_sd             =   8.4893691032360E-01
(PID.TID 0000.0001) %MON dynstat_theta_del2           =   3.0887288540573E-06
(PID.TID 0000.0001) %MON dynstat_salt_max             =   3.4700000000000E+01
(PID.TID 0000.0001) %MON dynstat_salt_min             =   3.4000000000000E+01
(PID.TID 0000.0001) %MON dynstat_salt_mean            =   3.4497963652959E+01
(PID.TID 0000.0001) %MON dynstat_salt_sd              =   2.7011169520138E-01
(PID.TID 0000.0001) %MON dynstat_salt_del2            =   1.2217647140944E-06
(PID.TID 0000.0001) %MON advcfl_uvel_max              =   3.1478945086182E-03
(PID.TID 0000.0001) %MON advcfl_vvel_max              =   2.1837443767646E-03
(PID.TID 0000.0001) %MON advcfl_wvel_max              =   7.6469998878508E-03
(PID.TID 0000.0001) %MON advcfl_W_hf_max              =   7.6469998878508E-03
(PID.TID 0000.0001) %MON pe_b_mean                    =  -6.8202258543462E-01
(PID.TID 0000.0001) %MON ke_max                       =   3.9445676261715E-04
(PID.TID 0000.0001) %MON ke_mean                      =   4.4846970362582E-07
(PID.TID 0000.0001) %MON ke_vol                       =   4.6183058128104E+12
(PID.TID 0000.0001) // =======================================================
(PID.TID 0000.0001) // End MONITOR dynamic field statistics
(PID.TID 0000.0001) // =======================================================
(PID.TID 0000.0001) // =======================================================
(PID.TID 0000.0001) // Begin OBCS MONITOR field statistics
(PID.TID 0000.0001) // =======================================================
(PID.TID 0000.0001) %MON obc_N_vVel_max               =   1.2257978350770E-07
(PID.TID 0000.0001) %MON obc_N_vVel_min               =   1.2257978350770E-07
(PID.TID 0000.0001) %MON obc_N_vVel_mean              =   1.2257978350770E-07
(PID.TID 0000.0001) %MON obc_N_vVel_sd                =   2.8752847314164E-14
(PID.TID 0000.0001) %MON obc_N_vVel_Int               =   8.0902657115081E+00
(PID.TID 0000.0001) // =======================================================
(PID.TID 0000.0001) // End OBCS MONITOR field statistics
(PID.TID 0000.0001) // =======================================================
 cg2d: Sum(rhs),rhsMax =   3.00876109123436E+00  4.53044009883094E+02
(PID.TID 0000.0001)      cg2d_init_res =   3.56870124962996E-06
(PID.TID 0000.0001)      cg2d_iters(min,last) =      -1      75
(PID.TID 0000.0001)      cg2d_last_res =   8.66721806528856E-12
(PID.TID 0000.0001) // =======================================================
(PID.TID 0000.0001) // Begin MONITOR dynamic field statistics
(PID.TID 0000.0001) // =======================================================
(PID.TID 0000.0001) %MON time_tsnumber                =                  1167
(PID.TID 0000.0001) %MON time_secondsf                =   1.1670000000000E+05
(PID.TID 0000.0001) %MON dynstat_eta_max              =   5.7986979218983E+00
(PID.TID 0000.0001) %MON dynstat_eta_min              =  -1.4171087245547E+01
(PID.TID 0000.0001) %MON dynstat_eta_mean             =  -2.5242614621353E+00
(PID.TID 0000.0001) %MON dynstat_eta_sd               =   4.9411312348705E+00
(PID.TID 0000.0001) %MON dynstat_eta_del2             =   1.9058711352952E-01
(PID.TID 0000.0001) %MON dynstat_uvel_max             =   6.7483609243624E-03
(PID.TID 0000.0001) %MON dynstat_uvel_min             =  -3.1550101956760E-02
(PID.TID 0000.0001) %MON dynstat_uvel_mean            =   2.2596089237056E-09
(PID.TID 0000.0001) %MON dynstat_uvel_sd              =   8.6113226884319E-04
(PID.TID 0000.0001) %MON dynstat_uvel_del2            =   1.3183032768975E-06
(PID.TID 0000.0001) %MON dynstat_vvel_max             =   2.1877238966212E-02
(PID.TID 0000.0001) %MON dynstat_vvel_min             =  -8.1844189193150E-03
(PID.TID 0000.0001) %MON dynstat_vvel_mean            =   1.4069523962468E-07
(PID.TID 0000.0001) %MON dynstat_vvel_sd              =   4.1661891621461E-04
(PID.TID 0000.0001) %MON dynstat_vvel_del2            =   1.1054085008501E-06
(PID.TID 0000.0001) %MON dynstat_wvel_max             =   1.2744651299828E-03
(PID.TID 0000.0001) %MON dynstat_wvel_min             =  -1.5336237694764E-03
(PID.TID 0000.0001) %MON dynstat_wvel_mean            =   2.0355486977888E-10
(PID.TID 0000.0001) %MON dynstat_wvel_sd              =   2.0804617137788E-05
(PID.TID 0000.0001) %MON dynstat_wvel_del2            =   8.5740828525452E-08
(PID.TID 0000.0001) %MON dynstat_theta_max            =   1.2000000000000E+00
(PID.TID 0000.0001) %MON dynstat_theta_min            =  -1.0000000000000E+00
(PID.TID 0000.0001) %MON dynstat_theta_mean           =   5.6512340692621E-01
(PID.TID 0000.0001) %MON dynstat_theta_sd             =   8.4893659707370E-01
(PID.TID 0000.0001) %MON dynstat_theta_del2           =   3.0949909353705E-06
(PID.TID 0000.0001) %MON dynstat_salt_max             =   3.4700000000000E+01
(PID.TID 0000.0001) %MON dynstat_salt_min             =   3.4000000000000E+01
(PID.TID 0000.0001) %MON dynstat_salt_mean            =   3.4497963370177E+01
(PID.TID 0000.0001) %MON dynstat_salt_sd              =   2.7011157705055E-01
(PID.TID 0000.0001) %MON dynstat_salt_del2            =   1.2242492204156E-06
(PID.TID 0000.0001) %MON advcfl_uvel_max              =   3.1550101956760E-03
(PID.TID 0000.0001) %MON advcfl_vvel_max              =   2.1877238966212E-03
(PID.TID 0000.0001) %MON advcfl_wvel_max              =   7.6681188473819E-03
(PID.TID 0000.0001) %MON advcfl_W_hf_max              =   7.6681188473819E-03
(PID.TID 0000.0001) %MON pe_b_mean                    =  -6.8202071537221E-01
(PID.TID 0000.0001) %MON ke_max                       =   3.9656760103460E-04
(PID.TID 0000.0001) %MON ke_mean                      =   4.5058748272850E-07
(PID.TID 0000.0001) %MON ke_vol                       =   4.6183058497981E+12
(PID.TID 0000.0001) // =======================================================
(PID.TID 0000.0001) // End MONITOR dynamic field statistics
(PID.TID 0000.0001) // =======================================================
(PID.TID 0000.0001) // =======================================================
(PID.TID 0000.0001) // Begin OBCS MONITOR field statistics
(PID.TID 0000.0001) // =======================================================
(PID.TID 0000.0001) %MON obc_N_vVel_max               =   1.1312187860300E-07
(PID.TID 0000.0001) %MON obc_N_vVel_min               =   1.1312187860300E-07
(PID.TID 0000.0001) %MON obc_N_vVel_mean              =   1.1312187860300E-07
(PID.TID 0000.0001) %MON obc_N_vVel_sd                =   2.5526439385714E-14
(PID.TID 0000.0001) %MON obc_N_vVel_Int               =   7.4660439877977E+00
(PID.TID 0000.0001) // =======================================================
(PID.TID 0000.0001) // End OBCS MONITOR field statistics
(PID.TID 0000.0001) // =======================================================
 cg2d: Sum(rhs),rhsMax =   3.00875371552588E+00  4.53043994774524E+02
(PID.TID 0000.0001)      cg2d_init_res =   3.57658402115008E-06
(PID.TID 0000.0001)      cg2d_iters(min,last) =      -1      75
(PID.TID 0000.0001)      cg2d_last_res =   8.68964674117491E-12
(PID.TID 0000.0001) // =======================================================
(PID.TID 0000.0001) // Begin MONITOR dynamic field statistics
(PID.TID 0000.0001) // =======================================================
(PID.TID 0000.0001) %MON time_tsnumber                =                  1168
(PID.TID 0000.0001) %MON time_secondsf                =   1.1680000000000E+05
(PID.TID 0000.0001) %MON dynstat_eta_max              =   5.7987004889413E+00
(PID.TID 0000.0001) %MON dynstat_eta_min              =  -1.4171073827182E+01
(PID.TID 0000.0001) %MON dynstat_eta_mean             =  -2.5242551899529E+00
(PID.TID 0000.0001) %MON dynstat_eta_sd               =   4.9411294265936E+00
(PID.TID 0000.0001) %MON dynstat_eta_del2             =   1.9058713270667E-01
(PID.TID 0000.0001) %MON dynstat_uvel_max             =   6.7648464783918E-03
(PID.TID 0000.0001) %MON dynstat_uvel_min             =  -3.1621324719787E-02
(PID.TID 0000.0001) %MON dynstat_uvel_mean            =   2.3366015306110E-09
(PID.TID 0000.0001) %MON dynstat_uvel_sd              =   8.6323627270148E-04
(PID.TID 0000.0001) %MON dynstat_uvel_del2            =   1.3215186315547E-06
(PID.TID 0000.0001) %MON dynstat_vvel_max             =   2.1917056057001E-02
(PID.TID 0000.0001) %MON dynstat_vvel_min             =  -8.2029677734337E-03
(PID.TID 0000.0001) %MON dynstat_vvel_mean            =   1.2828704873307E-07
(PID.TID 0000.0001) %MON dynstat_vvel_sd              =   4.1745244185864E-04
(PID.TID 0000.0001) %MON dynstat_vvel_del2            =   1.1076803005233E-06
(PID.TID 0000.0001) %MON dynstat_wvel_max             =   1.2773011993937E-03
(PID.TID 0000.0001) %MON dynstat_wvel_min             =  -1.5378544062773E-03
(PID.TID 0000.0001) %MON dynstat_wvel_mean            =   1.9591912155022E-10
(PID.TID 0000.0001) %MON dynstat_wvel_sd              =   2.0849103982204E-05
(PID.TID 0000.0001) %MON dynstat_wvel_del2            =   8.5870511265944E-08
(PID.TID 0000.0001) %MON dynstat_theta_max            =   1.2000000000000E+00
(PID.TID 0000.0001) %MON dynstat_theta_min            =  -1.0000000000000E+00
(PID.TID 0000.0001) %MON dynstat_theta_mean           =   5.6512269759720E-01
(PID.TID 0000.0001) %MON dynstat_theta_sd             =   8.4893628319335E-01
(PID.TID 0000.0001) %MON dynstat_theta_del2           =   3.1012518262511E-06
(PID.TID 0000.0001) %MON dynstat_salt_max             =   3.4700000000000E+01
(PID.TID 0000.0001) %MON dynstat_salt_min             =   3.4000000000000E+01
(PID.TID 0000.0001) %MON dynstat_salt_mean            =   3.4497963086898E+01
(PID.TID 0000.0001) %MON dynstat_salt_sd              =   2.7011145865835E-01
(PID.TID 0000.0001) %MON dynstat_salt_del2            =   1.2267349169802E-06
(PID.TID 0000.0001) %MON advcfl_uvel_max              =   3.1621324719787E-03
(PID.TID 0000.0001) %MON advcfl_vvel_max              =   2.1917056057001E-03
(PID.TID 0000.0001) %MON advcfl_wvel_max              =   7.6892720313863E-03
(PID.TID 0000.0001) %MON advcfl_W_hf_max              =   7.6892720313863E-03
(PID.TID 0000.0001) %MON pe_b_mean                    =  -6.8201883906131E-01
(PID.TID 0000.0001) %MON ke_max                       =   3.9868795218826E-04
(PID.TID 0000.0001) %MON ke_mean                      =   4.5271501882615E-07
(PID.TID 0000.0001) %MON ke_vol                       =   4.6183058869149E+12
(PID.TID 0000.0001) // =======================================================
(PID.TID 0000.0001) // End MONITOR dynamic field statistics
(PID.TID 0000.0001) // =======================================================
(PID.TID 0000.0001) // =======================================================
(PID.TID 0000.0001) // Begin OBCS MONITOR field statistics
(PID.TID 0000.0001) // =======================================================
(PID.TID 0000.0001) %MON obc_N_vVel_max               =   1.0201921792344E-07
(PID.TID 0000.0001) %MON obc_N_vVel_min               =   1.0201921792343E-07
(PID.TID 0000.0001) %MON obc_N_vVel_mean              =   1.0201921792343E-07
(PID.TID 0000.0001) %MON obc_N_vVel_sd                =   2.0408786293082E-14
(PID.TID 0000.0001) %MON obc_N_vVel_Int               =   6.7332683829467E+00
(PID.TID 0000.0001) // =======================================================
(PID.TID 0000.0001) // End OBCS MONITOR field statistics
(PID.TID 0000.0001) // =======================================================
 cg2d: Sum(rhs),rhsMax =   3.00874631553992E+00  4.53043978793725E+02
(PID.TID 0000.0001)      cg2d_init_res =   3.58480602643572E-06
(PID.TID 0000.0001)      cg2d_iters(min,last) =      -1      75
(PID.TID 0000.0001)      cg2d_last_res =   8.71250301530228E-12
(PID.TID 0000.0001) // =======================================================
(PID.TID 0000.0001) // Begin MONITOR dynamic field statistics
(PID.TID 0000.0001) // =======================================================
(PID.TID 0000.0001) %MON time_tsnumber                =                  1169
(PID.TID 0000.0001) %MON time_secondsf                =   1.1690000000000E+05
(PID.TID 0000.0001) %MON dynstat_eta_max              =   5.7987030808516E+00
(PID.TID 0000.0001) %MON dynstat_eta_min              =  -1.4171060358797E+01
(PID.TID 0000.0001) %MON dynstat_eta_mean             =  -2.5242488925429E+00
(PID.TID 0000.0001) %MON dynstat_eta_sd               =   4.9411276093581E+00
(PID.TID 0000.0001) %MON dynstat_eta_del2             =   1.9058715190463E-01
(PID.TID 0000.0001) %MON dynstat_uvel_max             =   6.7813661317917E-03
(PID.TID 0000.0001) %MON dynstat_uvel_min             =  -3.1692613086880E-02
(PID.TID 0000.0001) %MON dynstat_uvel_mean            =   2.4062968901537E-09
(PID.TID 0000.0001) %MON dynstat_uvel_sd              =   8.6534456206507E-04
(PID.TID 0000.0001) %MON dynstat_uvel_del2            =   1.3247414716467E-06
(PID.TID 0000.0001) %MON dynstat_vvel_max             =   2.1956894963185E-02
(PID.TID 0000.0001) %MON dynstat_vvel_min             =  -8.2215409510951E-03
(PID.TID 0000.0001) %MON dynstat_vvel_mean            =   1.1447807965459E-07
(PID.TID 0000.0001) %MON dynstat_vvel_sd              =   4.1828865992244E-04
(PID.TID 0000.0001) %MON dynstat_vvel_del2            =   1.1099652623645E-06
(PID.TID 0000.0001) %MON dynstat_wvel_max             =   1.2801408304797E-03
(PID.TID 0000.0001) %MON dynstat_wvel_min             =  -1.5420918707443E-03
(PID.TID 0000.0001) %MON dynstat_wvel_mean            =   1.9000623602313E-10
(PID.TID 0000.0001) %MON dynstat_wvel_sd              =   2.0898136715553E-05
(PID.TID 0000.0001) %MON dynstat_wvel_del2            =   8.6030448122035E-08
(PID.TID 0000.0001) %MON dynstat_theta_max            =   1.2000000000000E+00
(PID.TID 0000.0001) %MON dynstat_theta_min            =  -1.0000000000000E+00
(PID.TID 0000.0001) %MON dynstat_theta_mean           =   5.6512198702490E-01
(PID.TID 0000.0001) %MON dynstat_theta_sd             =   8.4893596867936E-01
(PID.TID 0000.0001) %MON dynstat_theta_del2           =   3.1075111067289E-06
(PID.TID 0000.0001) %MON dynstat_salt_max             =   3.4700000000000E+01
(PID.TID 0000.0001) %MON dynstat_salt_min             =   3.4000000000000E+01
(PID.TID 0000.0001) %MON dynstat_salt_mean            =   3.4497962803122E+01
(PID.TID 0000.0001) %MON dynstat_salt_sd              =   2.7011134002373E-01
(PID.TID 0000.0001) %MON dynstat_salt_del2            =   1.2292216983812E-06
(PID.TID 0000.0001) %MON advcfl_uvel_max              =   3.1692613086880E-03
(PID.TID 0000.0001) %MON advcfl_vvel_max              =   2.1956894963185E-03
(PID.TID 0000.0001) %MON advcfl_wvel_max              =   7.7104593537213E-03
(PID.TID 0000.0001) %MON advcfl_W_hf_max              =   7.7104593537213E-03
(PID.TID 0000.0001) %MON pe_b_mean                    =  -6.8201695620730E-01
(PID.TID 0000.0001) %MON ke_max                       =   4.0081785090528E-04
(PID.TID 0000.0001) %MON ke_mean                      =   4.5485235816452E-07
(PID.TID 0000.0001) %MON ke_vol                       =   4.6183059241717E+12
(PID.TID 0000.0001) // =======================================================
(PID.TID 0000.0001) // End MONITOR dynamic field statistics
(PID.TID 0000.0001) // =======================================================
(PID.TID 0000.0001) // =======================================================
(PID.TID 0000.0001) // Begin OBCS MONITOR field statistics
(PID.TID 0000.0001) // =======================================================
(PID.TID 0000.0001) %MON obc_N_vVel_max               =   8.9434903647353E-08
(PID.TID 0000.0001) %MON obc_N_vVel_min               =   8.9434903647351E-08
(PID.TID 0000.0001) %MON obc_N_vVel_mean              =   8.9434903647351E-08
(PID.TID 0000.0001) %MON obc_N_vVel_sd                =   1.3352249420227E-14
(PID.TID 0000.0001) %MON obc_N_vVel_Int               =   5.9027036407252E+00
(PID.TID 0000.0001) // =======================================================
(PID.TID 0000.0001) // End OBCS MONITOR field statistics
(PID.TID 0000.0001) // =======================================================
 cg2d: Sum(rhs),rhsMax =   3.00873888931681E+00  4.53043961974111E+02
(PID.TID 0000.0001)      cg2d_init_res =   3.59334514557727E-06
(PID.TID 0000.0001)      cg2d_iters(min,last) =      -1      75
(PID.TID 0000.0001)      cg2d_last_res =   8.73572972589021E-12
(PID.TID 0000.0001) // =======================================================
(PID.TID 0000.0001) // Begin MONITOR dynamic field statistics
(PID.TID 0000.0001) // =======================================================
(PID.TID 0000.0001) %MON time_tsnumber                =                  1170
(PID.TID 0000.0001) %MON time_secondsf                =   1.1700000000000E+05
(PID.TID 0000.0001) %MON dynstat_eta_max              =   5.7987056997421E+00
(PID.TID 0000.0001) %MON dynstat_eta_min              =  -1.4171046838065E+01
(PID.TID 0000.0001) %MON dynstat_eta_mean             =  -2.5242425684476E+00
(PID.TID 0000.0001) %MON dynstat_eta_sd               =   4.9411257828557E+00
(PID.TID 0000.0001) %MON dynstat_eta_del2             =   1.9058717112247E-01
(PID.TID 0000.0001) %MON dynstat_uvel_max             =   6.7979198928647E-03
(PID.TID 0000.0001) %MON dynstat_uvel_min             =  -3.1763966768739E-02
(PID.TID 0000.0001) %MON dynstat_uvel_mean            =   2.4678715485229E-09
(PID.TID 0000.0001) %MON dynstat_uvel_sd              =   8.6745714679606E-04
(PID.TID 0000.0001) %MON dynstat_uvel_del2            =   1.3279718101395E-06
(PID.TID 0000.0001) %MON dynstat_vvel_max             =   2.1996755610300E-02
(PID.TID 0000.0001) %MON dynstat_vvel_min             =  -8.2401383516673E-03
(PID.TID 0000.0001) %MON dynstat_vvel_mean            =   9.9470514765026E-08
(PID.TID 0000.0001) %MON dynstat_vvel_sd              =   4.1912751910602E-04
(PID.TID 0000.0001) %MON dynstat_vvel_del2            =   1.1122633974944E-06
(PID.TID 0000.0001) %MON dynstat_wvel_max             =   1.2829840187192E-03
(PID.TID 0000.0001) %MON dynstat_wvel_min             =  -1.5463361456224E-03
(PID.TID 0000.0001) %MON dynstat_wvel_mean            =   1.8590433122369E-10
(PID.TID 0000.0001) %MON dynstat_wvel_sd              =   2.0951414381539E-05
(PID.TID 0000.0001) %MON dynstat_wvel_del2            =   8.6220326280446E-08
(PID.TID 0000.0001) %MON dynstat_theta_max            =   1.2000000000000E+00
(PID.TID 0000.0001) %MON dynstat_theta_min            =  -1.0000000000000E+00
(PID.TID 0000.0001) %MON dynstat_theta_mean           =   5.6512127520651E-01
(PID.TID 0000.0001) %MON dynstat_theta_sd             =   8.4893565352602E-01
(PID.TID 0000.0001) %MON dynstat_theta_del2           =   3.1137690236232E-06
(PID.TID 0000.0001) %MON dynstat_salt_max             =   3.4700000000000E+01
(PID.TID 0000.0001) %MON dynstat_salt_min             =   3.4000000000000E+01
(PID.TID 0000.0001) %MON dynstat_salt_mean            =   3.4497962518846E+01
(PID.TID 0000.0001) %MON dynstat_salt_sd              =   2.7011122114485E-01
(PID.TID 0000.0001) %MON dynstat_salt_del2            =   1.2317096417557E-06
(PID.TID 0000.0001) %MON advcfl_uvel_max              =   3.1763966768739E-03
(PID.TID 0000.0001) %MON advcfl_vvel_max              =   2.1996755610300E-03
(PID.TID 0000.0001) %MON advcfl_wvel_max              =   7.7316807281122E-03
(PID.TID 0000.0001) %MON advcfl_W_hf_max              =   7.7316807281122E-03
(PID.TID 0000.0001) %MON pe_b_mean                    =  -6.8201506656023E-01
(PID.TID 0000.0001) %MON ke_max                       =   4.0295733212470E-04
(PID.TID 0000.0001) %MON ke_mean                      =   4.5699952106479E-07
(PID.TID 0000.0001) %MON ke_vol                       =   4.6183059615783E+12
(PID.TID 0000.0001) // =======================================================
(PID.TID 0000.0001) // End MONITOR dynamic field statistics
(PID.TID 0000.0001) // =======================================================
(PID.TID 0000.0001) // =======================================================
(PID.TID 0000.0001) // Begin OBCS MONITOR field statistics
(PID.TID 0000.0001) // =======================================================
(PID.TID 0000.0001) %MON obc_N_vVel_max               =   7.5552950769249E-08
(PID.TID 0000.0001) %MON obc_N_vVel_min               =   7.5552950769248E-08
(PID.TID 0000.0001) %MON obc_N_vVel_mean              =   7.5552950769249E-08
(PID.TID 0000.0001) %MON obc_N_vVel_sd                =  -1.9405978268437E-28
(PID.TID 0000.0001) %MON obc_N_vVel_Int               =   4.9864947507704E+00
(PID.TID 0000.0001) // =======================================================
(PID.TID 0000.0001) // End OBCS MONITOR field statistics
(PID.TID 0000.0001) // =======================================================
 cg2d: Sum(rhs),rhsMax =   3.00873143509216E+00  4.53043944359967E+02
(PID.TID 0000.0001)      cg2d_init_res =   3.60216451060571E-06
(PID.TID 0000.0001)      cg2d_iters(min,last) =      -1      75
(PID.TID 0000.0001)      cg2d_last_res =   8.75926738391464E-12
(PID.TID 0000.0001) // =======================================================
(PID.TID 0000.0001) // Begin MONITOR dynamic field statistics
(PID.TID 0000.0001) // =======================================================
(PID.TID 0000.0001) %MON time_tsnumber                =                  1171
(PID.TID 0000.0001) %MON time_secondsf                =   1.1710000000000E+05
(PID.TID 0000.0001) %MON dynstat_eta_max              =   5.7987083473238E+00
(PID.TID 0000.0001) %MON dynstat_eta_min              =  -1.4171033263107E+01
(PID.TID 0000.0001) %MON dynstat_eta_mean             =  -2.5242362164333E+00
(PID.TID 0000.0001) %MON dynstat_eta_sd               =   4.9411239468670E+00
(PID.TID 0000.0001) %MON dynstat_eta_del2             =   1.9058719035949E-01
(PID.TID 0000.0001) %MON dynstat_uvel_max             =   6.8145077691995E-03
(PID.TID 0000.0001) %MON dynstat_uvel_min             =  -3.1835385474720E-02
(PID.TID 0000.0001) %MON dynstat_uvel_mean            =   2.5206183435616E-09
(PID.TID 0000.0001) %MON dynstat_uvel_sd              =   8.6957403683100E-04
(PID.TID 0000.0001) %MON dynstat_uvel_del2            =   1.3312096610304E-06
(PID.TID 0000.0001) %MON dynstat_vvel_max             =   2.2036637926229E-02
(PID.TID 0000.0001) %MON dynstat_vvel_min             =  -8.2587598713775E-03
(PID.TID 0000.0001) %MON dynstat_vvel_mean            =   8.3483442820892E-08
(PID.TID 0000.0001) %MON dynstat_vvel_sd              =   4.1996891045072E-04
(PID.TID 0000.0001) %MON dynstat_vvel_del2            =   1.1145742094543E-06
(PID.TID 0000.0001) %MON dynstat_wvel_max             =   1.2858307595156E-03
(PID.TID 0000.0001) %MON dynstat_wvel_min             =  -1.5505872135979E-03
(PID.TID 0000.0001) %MON dynstat_wvel_mean            =   1.8367581512636E-10
(PID.TID 0000.0001) %MON dynstat_wvel_sd              =   2.1008396193764E-05
(PID.TID 0000.0001) %MON dynstat_wvel_del2            =   8.6438107059214E-08
(PID.TID 0000.0001) %MON dynstat_theta_max            =   1.2000000000000E+00
(PID.TID 0000.0001) %MON dynstat_theta_min            =  -1.0000000000000E+00
(PID.TID 0000.0001) %MON dynstat_theta_mean           =   5.6512056213927E-01
(PID.TID 0000.0001) %MON dynstat_theta_sd             =   8.4893533772789E-01
(PID.TID 0000.0001) %MON dynstat_theta_del2           =   3.1200264832290E-06
(PID.TID 0000.0001) %MON dynstat_salt_max             =   3.4700000000000E+01
(PID.TID 0000.0001) %MON dynstat_salt_min             =   3.4000000000000E+01
(PID.TID 0000.0001) %MON dynstat_salt_mean            =   3.4497962234070E+01
(PID.TID 0000.0001) %MON dynstat_salt_sd              =   2.7011110201995E-01
(PID.TID 0000.0001) %MON dynstat_salt_del2            =   1.2341989643909E-06
(PID.TID 0000.0001) %MON advcfl_uvel_max              =   3.1835385474720E-03
(PID.TID 0000.0001) %MON advcfl_vvel_max              =   2.2036637926229E-03
(PID.TID 0000.0001) %MON advcfl_wvel_max              =   7.7529360679895E-03
(PID.TID 0000.0001) %MON advcfl_W_hf_max              =   7.7529360679895E-03
(PID.TID 0000.0001) %MON pe_b_mean                    =  -6.8201316991816E-01
(PID.TID 0000.0001) %MON ke_max                       =   4.0510643089695E-04
(PID.TID 0000.0001) %MON ke_mean                      =   4.5915650367678E-07
(PID.TID 0000.0001) %MON ke_vol                       =   4.6183059991434E+12
(PID.TID 0000.0001) // =======================================================
(PID.TID 0000.0001) // End MONITOR dynamic field statistics
(PID.TID 0000.0001) // =======================================================
(PID.TID 0000.0001) // =======================================================
(PID.TID 0000.0001) // Begin OBCS MONITOR field statistics
(PID.TID 0000.0001) // =======================================================
(PID.TID 0000.0001) %MON obc_N_vVel_max               =   6.0575655366582E-08
(PID.TID 0000.0001) %MON obc_N_vVel_min               =   6.0575655366581E-08
(PID.TID 0000.0001) %MON obc_N_vVel_mean              =   6.0575655366581E-08
(PID.TID 0000.0001) %MON obc_N_vVel_sd                =   4.2595540635239E-15
(PID.TID 0000.0001) %MON obc_N_vVel_Int               =   3.9979932541944E+00
(PID.TID 0000.0001) // =======================================================
(PID.TID 0000.0001) // End OBCS MONITOR field statistics
(PID.TID 0000.0001) // =======================================================
 cg2d: Sum(rhs),rhsMax =   3.00872395132055E+00  4.53043926005870E+02
(PID.TID 0000.0001)      cg2d_init_res =   3.61120115887933E-06
(PID.TID 0000.0001)      cg2d_iters(min,last) =      -1      75
(PID.TID 0000.0001)      cg2d_last_res =   8.78303507313539E-12
(PID.TID 0000.0001) // =======================================================
(PID.TID 0000.0001) // Begin MONITOR dynamic field statistics
(PID.TID 0000.0001) // =======================================================
(PID.TID 0000.0001) %MON time_tsnumber                =                  1172
(PID.TID 0000.0001) %MON time_secondsf                =   1.1720000000000E+05
(PID.TID 0000.0001) %MON dynstat_eta_max              =   5.7987110249070E+00
(PID.TID 0000.0001) %MON dynstat_eta_min              =  -1.4171019632507E+01
(PID.TID 0000.0001) %MON dynstat_eta_mean             =  -2.5242298355077E+00
(PID.TID 0000.0001) %MON dynstat_eta_sd               =   4.9411221012666E+00
(PID.TID 0000.0001) %MON dynstat_eta_del2             =   1.9058720961531E-01
(PID.TID 0000.0001) %MON dynstat_uvel_max             =   6.8311297676900E-03
(PID.TID 0000.0001) %MON dynstat_uvel_min             =  -3.1906868912970E-02
(PID.TID 0000.0001) %MON dynstat_uvel_mean            =   2.5639595585634E-09
(PID.TID 0000.0001) %MON dynstat_uvel_sd              =   8.7169524219353E-04
(PID.TID 0000.0001) %MON dynstat_uvel_del2            =   1.3344550393954E-06
(PID.TID 0000.0001) %MON dynstat_vvel_max             =   2.2076541840756E-02
(PID.TID 0000.0001) %MON dynstat_vvel_min             =  -8.2774054038630E-03
(PID.TID 0000.0001) %MON dynstat_vvel_mean            =   6.6749699055234E-08
(PID.TID 0000.0001) %MON dynstat_vvel_sd              =   4.2081267530919E-04
(PID.TID 0000.0001) %MON dynstat_vvel_del2            =   1.1168967440763E-06
(PID.TID 0000.0001) %MON dynstat_wvel_max             =   1.2886810482161E-03
(PID.TID 0000.0001) %MON dynstat_wvel_min             =  -1.5548450572101E-03
(PID.TID 0000.0001) %MON dynstat_wvel_mean            =   1.8335681002065E-10
(PID.TID 0000.0001) %MON dynstat_wvel_sd              =   2.1068339809822E-05
(PID.TID 0000.0001) %MON dynstat_wvel_del2            =   8.6680204886791E-08
(PID.TID 0000.0001) %MON dynstat_theta_max            =   1.2000000000000E+00
(PID.TID 0000.0001) %MON dynstat_theta_min            =  -1.0000000000000E+00
(PID.TID 0000.0001) %MON dynstat_theta_mean           =   5.6511984782042E-01
(PID.TID 0000.0001) %MON dynstat_theta_sd             =   8.4893502128053E-01
(PID.TID 0000.0001) %MON dynstat_theta_del2           =   3.1262849166531E-06
(PID.TID 0000.0001) %MON dynstat_salt_max             =   3.4700000000000E+01
(PID.TID 0000.0001) %MON dynstat_salt_min             =   3.4000000000000E+01
(PID.TID 0000.0001) %MON dynstat_salt_mean            =   3.4497961948793E+01
(PID.TID 0000.0001) %MON dynstat_salt_sd              =   2.7011098264771E-01
(PID.TID 0000.0001) %MON dynstat_salt_del2            =   1.2366897563462E-06
(PID.TID 0000.0001) %MON advcfl_uvel_max              =   3.1906868912970E-03
(PID.TID 0000.0001) %MON advcfl_vvel_max              =   2.2076541840756E-03
(PID.TID 0000.0001) %MON advcfl_wvel_max              =   7.7742252860504E-03
(PID.TID 0000.0001) %MON advcfl_W_hf_max              =   7.7742252860504E-03
(PID.TID 0000.0001) %MON pe_b_mean                    =  -6.8201126612983E-01
(PID.TID 0000.0001) %MON ke_max                       =   4.0726518237572E-04
(PID.TID 0000.0001) %MON ke_mean                      =   4.6132328109622E-07
(PID.TID 0000.0001) %MON ke_vol                       =   4.6183060368744E+12
(PID.TID 0000.0001) // =======================================================
(PID.TID 0000.0001) // End MONITOR dynamic field statistics
(PID.TID 0000.0001) // =======================================================
(PID.TID 0000.0001) // =======================================================
(PID.TID 0000.0001) // Begin OBCS MONITOR field statistics
(PID.TID 0000.0001) // =======================================================
(PID.TID 0000.0001) %MON obc_N_vVel_max               =   4.4720655991844E-08
(PID.TID 0000.0001) %MON obc_N_vVel_min               =   4.4720655991843E-08
(PID.TID 0000.0001) %MON obc_N_vVel_mean              =   4.4720655991844E-08
(PID.TID 0000.0001) %MON obc_N_vVel_sd                =  -1.0728508311006E-28
(PID.TID 0000.0001) %MON obc_N_vVel_Int               =   2.9515632954617E+00
(PID.TID 0000.0001) // =======================================================
(PID.TID 0000.0001) // End OBCS MONITOR field statistics
(PID.TID 0000.0001) // =======================================================
 cg2d: Sum(rhs),rhsMax =   3.00871643669805E+00  4.53043906976003E+02
(PID.TID 0000.0001)      cg2d_init_res =   3.62034755653150E-06
(PID.TID 0000.0001)      cg2d_iters(min,last) =      -1      75
(PID.TID 0000.0001)      cg2d_last_res =   8.80685481284479E-12
(PID.TID 0000.0001) // =======================================================
(PID.TID 0000.0001) // Begin MONITOR dynamic field statistics
(PID.TID 0000.0001) // =======================================================
(PID.TID 0000.0001) %MON time_tsnumber                =                  1173
(PID.TID 0000.0001) %MON time_secondsf                =   1.1730000000000E+05
(PID.TID 0000.0001) %MON dynstat_eta_max              =   5.7987137333559E+00
(PID.TID 0000.0001) %MON dynstat_eta_min              =  -1.4171005945339E+01
(PID.TID 0000.0001) %MON dynstat_eta_mean             =  -2.5242234249344E+00
(PID.TID 0000.0001) %MON dynstat_eta_sd               =   4.9411202460165E+00
(PID.TID 0000.0001) %MON dynstat_eta_del2             =   1.9058722888944E-01
(PID.TID 0000.0001) %MON dynstat_uvel_max             =   6.8477858947285E-03
(PID.TID 0000.0001) %MON dynstat_uvel_min             =  -3.1978416789801E-02
(PID.TID 0000.0001) %MON dynstat_uvel_mean            =   2.5974389303522E-09
(PID.TID 0000.0001) %MON dynstat_uvel_sd              =   8.7382077303961E-04
(PID.TID 0000.0001) %MON dynstat_uvel_del2            =   1.3377079526418E-06
(PID.TID 0000.0001) %MON dynstat_vvel_max             =   2.2116467285179E-02
(PID.TID 0000.0001) %MON dynstat_vvel_min             =  -8.2960748407896E-03
(PID.TID 0000.0001) %MON dynstat_vvel_mean            =   4.9512533452513E-08
(PID.TID 0000.0001) %MON dynstat_vvel_sd              =   4.2165861659648E-04
(PID.TID 0000.0001) %MON dynstat_vvel_del2            =   1.1192296680298E-06
(PID.TID 0000.0001) %MON dynstat_wvel_max             =   1.2915348801196E-03
(PID.TID 0000.0001) %MON dynstat_wvel_min             =  -1.5591096588685E-03
(PID.TID 0000.0001) %MON dynstat_wvel_mean            =   1.8495712046537E-10
(PID.TID 0000.0001) %MON dynstat_wvel_sd              =   2.1130351245059E-05
(PID.TID 0000.0001) %MON dynstat_wvel_del2            =   8.6941759844825E-08
(PID.TID 0000.0001) %MON dynstat_theta_max            =   1.2000000000000E+00
(PID.TID 0000.0001) %MON dynstat_theta_min            =  -1.0000000000000E+00
(PID.TID 0000.0001) %MON dynstat_theta_mean           =   5.6511913224737E-01
(PID.TID 0000.0001) %MON dynstat_theta_sd             =   8.4893470418103E-01
(PID.TID 0000.0001) %MON dynstat_theta_del2           =   3.1325444812867E-06
(PID.TID 0000.0001) %MON dynstat_salt_max             =   3.4700000000000E+01
(PID.TID 0000.0001) %MON dynstat_salt_min             =   3.4000000000000E+01
(PID.TID 0000.0001) %MON dynstat_salt_mean            =   3.4497961663014E+01
(PID.TID 0000.0001) %MON dynstat_salt_sd              =   2.7011086302691E-01
(PID.TID 0000.0001) %MON dynstat_salt_del2            =   1.2391818184357E-06
(PID.TID 0000.0001) %MON advcfl_uvel_max              =   3.1978416789801E-03
(PID.TID 0000.0001) %MON advcfl_vvel_max              =   2.2116467285179E-03
(PID.TID 0000.0001) %MON advcfl_wvel_max              =   7.7955482943427E-03
(PID.TID 0000.0001) %MON advcfl_W_hf_max              =   7.7955482943427E-03
(PID.TID 0000.0001) %MON pe_b_mean                    =  -6.8200935509698E-01
(PID.TID 0000.0001) %MON ke_max                       =   4.0943362181071E-04
(PID.TID 0000.0001) %MON ke_mean                      =   4.6349981193274E-07
(PID.TID 0000.0001) %MON ke_vol                       =   4.6183060747771E+12
(PID.TID 0000.0001) // =======================================================
(PID.TID 0000.0001) // End MONITOR dynamic field statistics
(PID.TID 0000.0001) // =======================================================
(PID.TID 0000.0001) // =======================================================
(PID.TID 0000.0001) // Begin OBCS MONITOR field statistics
(PID.TID 0000.0001) // =======================================================
(PID.TID 0000.0001) %MON obc_N_vVel_max               =   2.8217852229618E-08
(PID.TID 0000.0001) %MON obc_N_vVel_min               =   2.8217852229617E-08
(PID.TID 0000.0001) %MON obc_N_vVel_mean              =   2.8217852229617E-08
(PID.TID 0000.0001) %MON obc_N_vVel_sd                =   6.1854469444996E-15
(PID.TID 0000.0001) %MON obc_N_vVel_Int               =   1.8623782471547E+00
(PID.TID 0000.0001) // =======================================================
(PID.TID 0000.0001) // End OBCS MONITOR field statistics
(PID.TID 0000.0001) // =======================================================
 cg2d: Sum(rhs),rhsMax =   3.00870889017746E+00  4.53043887343332E+02
(PID.TID 0000.0001)      cg2d_init_res =   3.62949239341530E-06
(PID.TID 0000.0001)      cg2d_iters(min,last) =      -1      75
(PID.TID 0000.0001)      cg2d_last_res =   8.83056312971646E-12
(PID.TID 0000.0001) // =======================================================
(PID.TID 0000.0001) // Begin MONITOR dynamic field statistics
(PID.TID 0000.0001) // =======================================================
(PID.TID 0000.0001) %MON time_tsnumber                =                  1174
(PID.TID 0000.0001) %MON time_secondsf                =   1.1740000000000E+05
(PID.TID 0000.0001) %MON dynstat_eta_max              =   5.7987164731007E+00
(PID.TID 0000.0001) %MON dynstat_eta_min              =  -1.4170992201168E+01
(PID.TID 0000.0001) %MON dynstat_eta_mean             =  -2.5242169842416E+00
(PID.TID 0000.0001) %MON dynstat_eta_sd               =   4.9411183811671E+00
(PID.TID 0000.0001) %MON dynstat_eta_del2             =   1.9058724818134E-01
(PID.TID 0000.0001) %MON dynstat_uvel_max             =   6.8644761561369E-03
(PID.TID 0000.0001) %MON dynstat_uvel_min             =  -3.2050028809786E-02
(PID.TID 0000.0001) %MON dynstat_uvel_mean            =   2.6207209015020E-09
(PID.TID 0000.0001) %MON dynstat_uvel_sd              =   8.7595063970825E-04
(PID.TID 0000.0001) %MON dynstat_uvel_del2            =   1.3409683938868E-06
(PID.TID 0000.0001) %MON dynstat_vvel_max             =   2.2156414191794E-02
(PID.TID 0000.0001) %MON dynstat_vvel_min             =  -8.3147680725140E-03
(PID.TID 0000.0001) %MON dynstat_vvel_mean            =   3.2022115758966E-08
(PID.TID 0000.0001) %MON dynstat_vvel_sd              =   4.2250651187837E-04
(PID.TID 0000.0001) %MON dynstat_vvel_del2            =   1.1215713649467E-06
(PID.TID 0000.0001) %MON dynstat_wvel_max             =   1.2943922504739E-03
(PID.TID 0000.0001) %MON dynstat_wvel_min             =  -1.5633810008148E-03
(PID.TID 0000.0001) %MON dynstat_wvel_mean            =   1.8845942096616E-10
(PID.TID 0000.0001) %MON dynstat_wvel_sd              =   2.1193442751063E-05
(PID.TID 0000.0001) %MON dynstat_wvel_del2            =   8.7216979710085E-08
(PID.TID 0000.0001) %MON dynstat_theta_max            =   1.2000000000000E+00
(PID.TID 0000.0001) %MON dynstat_theta_min            =  -1.0000000000000E+00
(PID.TID 0000.0001) %MON dynstat_theta_mean           =   5.6511841541754E-01
(PID.TID 0000.0001) %MON dynstat_theta_sd             =   8.4893438642879E-01
(PID.TID 0000.0001) %MON dynstat_theta_del2           =   3.1388078322104E-06
(PID.TID 0000.0001) %MON dynstat_salt_max             =   3.4700000000000E+01
(PID.TID 0000.0001) %MON dynstat_salt_min             =   3.4000000000000E+01
(PID.TID 0000.0001) %MON dynstat_salt_mean            =   3.4497961376732E+01
(PID.TID 0000.0001) %MON dynstat_salt_sd              =   2.7011074315779E-01
(PID.TID 0000.0001) %MON dynstat_salt_del2            =   1.2416766680730E-06
(PID.TID 0000.0001) %MON advcfl_uvel_max              =   3.2050028809786E-03
(PID.TID 0000.0001) %MON advcfl_vvel_max              =   2.2156414191794E-03
(PID.TID 0000.0001) %MON advcfl_wvel_max              =   7.8169050040738E-03
(PID.TID 0000.0001) %MON advcfl_W_hf_max              =   7.8169050040738E-03
(PID.TID 0000.0001) %MON pe_b_mean                    =  -6.8200743677517E-01
(PID.TID 0000.0001) %MON ke_max                       =   4.1161178454846E-04
(PID.TID 0000.0001) %MON ke_mean                      =   4.6568604371603E-07
(PID.TID 0000.0001) %MON ke_vol                       =   4.6183061128559E+12
(PID.TID 0000.0001) // =======================================================
(PID.TID 0000.0001) // End MONITOR dynamic field statistics
(PID.TID 0000.0001) // =======================================================
(PID.TID 0000.0001) // =======================================================
(PID.TID 0000.0001) // Begin OBCS MONITOR field statistics
(PID.TID 0000.0001) // =======================================================
(PID.TID 0000.0001) %MON obc_N_vVel_max               =   1.1306112029803E-08
(PID.TID 0000.0001) %MON obc_N_vVel_min               =   1.1306112029803E-08
(PID.TID 0000.0001) %MON obc_N_vVel_mean              =   1.1306112029803E-08
(PID.TID 0000.0001) %MON obc_N_vVel_sd                =   2.3498992183809E-15
(PID.TID 0000.0001) %MON obc_N_vVel_Int               =   7.4620339396698E-01
(PID.TID 0000.0001) // =======================================================
(PID.TID 0000.0001) // End OBCS MONITOR field statistics
(PID.TID 0000.0001) // =======================================================
 cg2d: Sum(rhs),rhsMax =   3.00870131098672E+00  4.53043867187878E+02
(PID.TID 0000.0001)      cg2d_init_res =   3.63878480059755E-06
(PID.TID 0000.0001)      cg2d_iters(min,last) =      -1      75
(PID.TID 0000.0001)      cg2d_last_res =   8.85474606248378E-12
(PID.TID 0000.0001) // =======================================================
(PID.TID 0000.0001) // Begin MONITOR dynamic field statistics
(PID.TID 0000.0001) // =======================================================
(PID.TID 0000.0001) %MON time_tsnumber                =                  1175
(PID.TID 0000.0001) %MON time_secondsf                =   1.1750000000000E+05
(PID.TID 0000.0001) %MON dynstat_eta_max              =   5.7987192441187E+00
(PID.TID 0000.0001) %MON dynstat_eta_min              =  -1.4170978400076E+01
(PID.TID 0000.0001) %MON dynstat_eta_mean             =  -2.5242105132272E+00
(PID.TID 0000.0001) %MON dynstat_eta_sd               =   4.9411165068910E+00
(PID.TID 0000.0001) %MON dynstat_eta_del2             =   1.9058726749282E-01
(PID.TID 0000.0001) %MON dynstat_uvel_max             =   6.8812005571859E-03
(PID.TID 0000.0001) %MON dynstat_uvel_min             =  -3.2121704676598E-02
(PID.TID 0000.0001) %MON dynstat_uvel_mean            =   2.6336661029640E-09
(PID.TID 0000.0001) %MON dynstat_uvel_sd              =   8.7808485229920E-04
(PID.TID 0000.0001) %MON dynstat_uvel_del2            =   1.3442363849620E-06
(PID.TID 0000.0001) %MON dynstat_vvel_max             =   2.2196382493541E-02
(PID.TID 0000.0001) %MON dynstat_vvel_min             =  -8.3334849888936E-03
(PID.TID 0000.0001) %MON dynstat_vvel_mean            =   1.4531864903476E-08
(PID.TID 0000.0001) %MON dynstat_vvel_sd              =   4.2335612540315E-04
(PID.TID 0000.0001) %MON dynstat_vvel_del2            =   1.1239200334070E-06
(PID.TID 0000.0001) %MON dynstat_wvel_max             =   1.2972531545055E-03
(PID.TID 0000.0001) %MON dynstat_wvel_min             =  -1.5676590650224E-03
(PID.TID 0000.0001) %MON dynstat_wvel_mean            =   1.9381573981793E-10
(PID.TID 0000.0001) %MON dynstat_wvel_sd              =   2.1256594660627E-05
(PID.TID 0000.0001) %MON dynstat_wvel_del2            =   8.7499524534529E-08
(PID.TID 0000.0001) %MON dynstat_theta_max            =   1.2000000000000E+00
(PID.TID 0000.0001) %MON dynstat_theta_min            =  -1.0000000000000E+00
(PID.TID 0000.0001) %MON dynstat_theta_mean           =   5.6511769732830E-01
(PID.TID 0000.0001) %MON dynstat_theta_sd             =   8.4893406802526E-01
(PID.TID 0000.0001) %MON dynstat_theta_del2           =   3.1450787037077E-06
(PID.TID 0000.0001) %MON dynstat_salt_max             =   3.4700000000000E+01
(PID.TID 0000.0001) %MON dynstat_salt_min             =   3.4000000000000E+01
(PID.TID 0000.0001) %MON dynstat_salt_mean            =   3.4497961089946E+01
(PID.TID 0000.0001) %MON dynstat_salt_sd              =   2.7011062304072E-01
(PID.TID 0000.0001) %MON dynstat_salt_del2            =   1.2441749083954E-06
(PID.TID 0000.0001) %MON advcfl_uvel_max              =   3.2121704676598E-03
(PID.TID 0000.0001) %MON advcfl_vvel_max              =   2.2196382493541E-03
(PID.TID 0000.0001) %MON advcfl_wvel_max              =   7.8382953251119E-03
(PID.TID 0000.0001) %MON advcfl_W_hf_max              =   7.8382953251119E-03
(PID.TID 0000.0001) %MON pe_b_mean                    =  -6.8200551117427E-01
(PID.TID 0000.0001) %MON ke_max                       =   4.1379970606797E-04
(PID.TID 0000.0001) %MON ke_mean                      =   4.6788191751467E-07
(PID.TID 0000.0001) %MON ke_vol                       =   4.6183061511136E+12
(PID.TID 0000.0001) // =======================================================
(PID.TID 0000.0001) // End MONITOR dynamic field statistics
(PID.TID 0000.0001) // =======================================================
(PID.TID 0000.0001) // =======================================================
(PID.TID 0000.0001) // Begin OBCS MONITOR field statistics
(PID.TID 0000.0001) // =======================================================
(PID.TID 0000.0001) %MON obc_N_vVel_max               =  -5.7701599738363E-09
(PID.TID 0000.0001) %MON obc_N_vVel_min               =  -5.7701599738363E-09
(PID.TID 0000.0001) %MON obc_N_vVel_mean              =  -5.7701599738363E-09
(PID.TID 0000.0001) %MON obc_N_vVel_sd                =   8.8470216988486E-16
(PID.TID 0000.0001) %MON obc_N_vVel_Int               =  -3.8083055827320E-01
(PID.TID 0000.0001) // =======================================================
(PID.TID 0000.0001) // End OBCS MONITOR field statistics
(PID.TID 0000.0001) // =======================================================
 cg2d: Sum(rhs),rhsMax =   3.00869369863560E+00  4.53043846596457E+02
(PID.TID 0000.0001)      cg2d_init_res =   3.64796143786024E-06
(PID.TID 0000.0001)      cg2d_iters(min,last) =      -1      75
(PID.TID 0000.0001)      cg2d_last_res =   8.87884122509620E-12
(PID.TID 0000.0001) // =======================================================
(PID.TID 0000.0001) // Begin MONITOR dynamic field statistics
(PID.TID 0000.0001) // =======================================================
(PID.TID 0000.0001) %MON time_tsnumber                =                  1176
(PID.TID 0000.0001) %MON time_secondsf                =   1.1760000000000E+05
(PID.TID 0000.0001) %MON dynstat_eta_max              =   5.7987220459465E+00
(PID.TID 0000.0001) %MON dynstat_eta_min              =  -1.4170964542634E+01
(PID.TID 0000.0001) %MON dynstat_eta_mean             =  -2.5242040119637E+00
(PID.TID 0000.0001) %MON dynstat_eta_sd               =   4.9411146234303E+00
(PID.TID 0000.0001) %MON dynstat_eta_del2             =   1.9058728682437E-01
(PID.TID 0000.0001) %MON dynstat_uvel_max             =   6.8979591027123E-03
(PID.TID 0000.0001) %MON dynstat_uvel_min             =  -3.2193444090962E-02
(PID.TID 0000.0001) %MON dynstat_uvel_mean            =   2.6362842028987E-09
(PID.TID 0000.0001) %MON dynstat_uvel_sd              =   8.8022342094405E-04
(PID.TID 0000.0001) %MON dynstat_uvel_del2            =   1.3475119438261E-06
(PID.TID 0000.0001) %MON dynstat_vvel_max             =   2.2236372123481E-02
(PID.TID 0000.0001) %MON dynstat_vvel_min             =  -8.3522254792310E-03
(PID.TID 0000.0001) %MON dynstat_vvel_mean            =  -2.7051731732622E-09
(PID.TID 0000.0001) %MON dynstat_vvel_sd              =   4.2420722387940E-04
(PID.TID 0000.0001) %MON dynstat_vvel_del2            =   1.1262738060597E-06
(PID.TID 0000.0001) %MON dynstat_wvel_max             =   1.3001175874141E-03
(PID.TID 0000.0001) %MON dynstat_wvel_min             =  -1.5719438332426E-03
(PID.TID 0000.0001) %MON dynstat_wvel_mean            =   2.0095492359267E-10
(PID.TID 0000.0001) %MON dynstat_wvel_sd              =   2.1318816938019E-05
(PID.TID 0000.0001) %MON dynstat_wvel_del2            =   8.7782904088955E-08
(PID.TID 0000.0001) %MON dynstat_theta_max            =   1.2000000000000E+00
(PID.TID 0000.0001) %MON dynstat_theta_min            =  -1.0000000000000E+00
(PID.TID 0000.0001) %MON dynstat_theta_mean           =   5.6511697797724E-01
(PID.TID 0000.0001) %MON dynstat_theta_sd             =   8.4893374897260E-01
(PID.TID 0000.0001) %MON dynstat_theta_del2           =   3.1513595520408E-06
(PID.TID 0000.0001) %MON dynstat_salt_max             =   3.4700000000000E+01
(PID.TID 0000.0001) %MON dynstat_salt_min             =   3.4000000000000E+01
(PID.TID 0000.0001) %MON dynstat_salt_mean            =   3.4497960802655E+01
(PID.TID 0000.0001) %MON dynstat_salt_sd              =   2.7011050267614E-01
(PID.TID 0000.0001) %MON dynstat_salt_del2            =   1.2466771515019E-06
(PID.TID 0000.0001) %MON advcfl_uvel_max              =   3.2193444090962E-03
(PID.TID 0000.0001) %MON advcfl_vvel_max              =   2.2236372123481E-03
(PID.TID 0000.0001) %MON advcfl_wvel_max              =   7.8597191662130E-03
(PID.TID 0000.0001) %MON advcfl_W_hf_max              =   7.8597191662130E-03
(PID.TID 0000.0001) %MON pe_b_mean                    =  -6.8200357835864E-01
(PID.TID 0000.0001) %MON ke_max                       =   4.1599742189602E-04
(PID.TID 0000.0001) %MON ke_mean                      =   4.7008737479946E-07
(PID.TID 0000.0001) %MON ke_vol                       =   4.6183061895514E+12
(PID.TID 0000.0001) // =======================================================
(PID.TID 0000.0001) // End MONITOR dynamic field statistics
(PID.TID 0000.0001) // =======================================================
(PID.TID 0000.0001) // =======================================================
(PID.TID 0000.0001) // Begin OBCS MONITOR field statistics
(PID.TID 0000.0001) // =======================================================
(PID.TID 0000.0001) %MON obc_N_vVel_max               =  -2.2764598071641E-08
(PID.TID 0000.0001) %MON obc_N_vVel_min               =  -2.2764598071642E-08
(PID.TID 0000.0001) %MON obc_N_vVel_mean              =  -2.2764598071641E-08
(PID.TID 0000.0001) %MON obc_N_vVel_sd                =   5.6697514837739E-15
(PID.TID 0000.0001) %MON obc_N_vVel_Int               =  -1.5024634727283E+00
(PID.TID 0000.0001) // =======================================================
(PID.TID 0000.0001) // End OBCS MONITOR field statistics
(PID.TID 0000.0001) // =======================================================
 cg2d: Sum(rhs),rhsMax =   3.00868605292477E+00  4.53043825661091E+02
(PID.TID 0000.0001)      cg2d_init_res =   3.65697044423863E-06
(PID.TID 0000.0001)      cg2d_iters(min,last) =      -1      75
(PID.TID 0000.0001)      cg2d_last_res =   8.90288475914998E-12
(PID.TID 0000.0001) // =======================================================
(PID.TID 0000.0001) // Begin MONITOR dynamic field statistics
(PID.TID 0000.0001) // =======================================================
(PID.TID 0000.0001) %MON time_tsnumber                =                  1177
(PID.TID 0000.0001) %MON time_secondsf                =   1.1770000000000E+05
(PID.TID 0000.0001) %MON dynstat_eta_max              =   5.7987248776794E+00
(PID.TID 0000.0001) %MON dynstat_eta_min              =  -1.4170950629914E+01
(PID.TID 0000.0001) %MON dynstat_eta_mean             =  -2.5241974807967E+00
(PID.TID 0000.0001) %MON dynstat_eta_sd               =   4.9411127311177E+00
(PID.TID 0000.0001) %MON dynstat_eta_del2             =   1.9058730617702E-01
(PID.TID 0000.0001) %MON dynstat_uvel_max             =   6.9147517971873E-03
(PID.TID 0000.0001) %MON dynstat_uvel_min             =  -3.2265246751294E-02
(PID.TID 0000.0001) %MON dynstat_uvel_mean            =   2.6287253508831E-09
(PID.TID 0000.0001) %MON dynstat_uvel_sd              =   8.8236635574079E-04
(PID.TID 0000.0001) %MON dynstat_uvel_del2            =   1.3507950882954E-06
(PID.TID 0000.0001) %MON dynstat_vvel_max             =   2.2276383014366E-02
(PID.TID 0000.0001) %MON dynstat_vvel_min             =  -8.3709894330513E-03
(PID.TID 0000.0001) %MON dynstat_vvel_mean            =  -1.9440022759669E-08
(PID.TID 0000.0001) %MON dynstat_vvel_sd              =   4.2505959004569E-04
(PID.TID 0000.0001) %MON dynstat_vvel_del2            =   1.1286308595639E-06
(PID.TID 0000.0001) %MON dynstat_wvel_max             =   1.3029855443586E-03
(PID.TID 0000.0001) %MON dynstat_wvel_min             =  -1.5762352869612E-03
(PID.TID 0000.0001) %MON dynstat_wvel_mean            =   2.0977896477853E-10
(PID.TID 0000.0001) %MON dynstat_wvel_sd              =   2.1379206757860E-05
(PID.TID 0000.0001) %MON dynstat_wvel_del2            =   8.8060860928082E-08
(PID.TID 0000.0001) %MON dynstat_theta_max            =   1.2000000000000E+00
(PID.TID 0000.0001) %MON dynstat_theta_min            =  -1.0000000000000E+00
(PID.TID 0000.0001) %MON dynstat_theta_mean           =   5.6511625736222E-01
(PID.TID 0000.0001) %MON dynstat_theta_sd             =   8.4893342927187E-01
(PID.TID 0000.0001) %MON dynstat_theta_del2           =   3.1576527285149E-06
(PID.TID 0000.0001) %MON dynstat_salt_max             =   3.4700000000000E+01
(PID.TID 0000.0001) %MON dynstat_salt_min             =   3.4000000000000E+01
(PID.TID 0000.0001) %MON dynstat_salt_mean            =   3.4497960514858E+01
(PID.TID 0000.0001) %MON dynstat_salt_sd              =   2.7011038206456E-01
(PID.TID 0000.0001) %MON dynstat_salt_del2            =   1.2491839810985E-06
(PID.TID 0000.0001) %MON advcfl_uvel_max              =   3.2265246751294E-03
(PID.TID 0000.0001) %MON advcfl_vvel_max              =   2.2276383014366E-03
(PID.TID 0000.0001) %MON advcfl_wvel_max              =   7.8811764348060E-03
(PID.TID 0000.0001) %MON advcfl_W_hf_max              =   7.8811764348060E-03
(PID.TID 0000.0001) %MON pe_b_mean                    =  -6.8200163844606E-01
(PID.TID 0000.0001) %MON ke_max                       =   4.1820496764273E-04
(PID.TID 0000.0001) %MON ke_mean                      =   4.7230236316233E-07
(PID.TID 0000.0001) %MON ke_vol                       =   4.6183062281689E+12
(PID.TID 0000.0001) // =======================================================
(PID.TID 0000.0001) // End MONITOR dynamic field statistics
(PID.TID 0000.0001) // =======================================================
(PID.TID 0000.0001) // =======================================================
(PID.TID 0000.0001) // Begin OBCS MONITOR field statistics
(PID.TID 0000.0001) // =======================================================
(PID.TID 0000.0001) %MON obc_N_vVel_max               =  -3.9432483591223E-08
(PID.TID 0000.0001) %MON obc_N_vVel_min               =  -3.9432483591224E-08
(PID.TID 0000.0001) %MON obc_N_vVel_mean              =  -3.9432483591224E-08
(PID.TID 0000.0001) %MON obc_N_vVel_sd                =  -7.0011405338365E-29
(PID.TID 0000.0001) %MON obc_N_vVel_Int               =  -2.6025439170208E+00
(PID.TID 0000.0001) // =======================================================
(PID.TID 0000.0001) // End OBCS MONITOR field statistics
(PID.TID 0000.0001) // =======================================================
 cg2d: Sum(rhs),rhsMax =   3.00867837394537E+00  4.53043804477789E+02
(PID.TID 0000.0001)      cg2d_init_res =   3.66573622473884E-06
(PID.TID 0000.0001)      cg2d_iters(min,last) =      -1      75
(PID.TID 0000.0001)      cg2d_last_res =   8.92681999433191E-12
(PID.TID 0000.0001) // =======================================================
(PID.TID 0000.0001) // Begin MONITOR dynamic field statistics
(PID.TID 0000.0001) // =======================================================
(PID.TID 0000.0001) %MON time_tsnumber                =                  1178
(PID.TID 0000.0001) %MON time_secondsf                =   1.1780000000000E+05
(PID.TID 0000.0001) %MON dynstat_eta_max              =   5.7987277379769E+00
(PID.TID 0000.0001) %MON dynstat_eta_min              =  -1.4170936663483E+01
(PID.TID 0000.0001) %MON dynstat_eta_mean             =  -2.5241909203375E+00
(PID.TID 0000.0001) %MON dynstat_eta_sd               =   4.9411108303657E+00
(PID.TID 0000.0001) %MON dynstat_eta_del2             =   1.9058732555200E-01
(PID.TID 0000.0001) %MON dynstat_uvel_max             =   6.9315786447284E-03
(PID.TID 0000.0001) %MON dynstat_uvel_min             =  -3.2337112354499E-02
(PID.TID 0000.0001) %MON dynstat_uvel_mean            =   2.6112768136500E-09
(PID.TID 0000.0001) %MON dynstat_uvel_sd              =   8.8451366673962E-04
(PID.TID 0000.0001) %MON dynstat_uvel_del2            =   1.3540858361347E-06
(PID.TID 0000.0001) %MON dynstat_vvel_max             =   2.2316415098148E-02
(PID.TID 0000.0001) %MON dynstat_vvel_min             =  -8.3897767411840E-03
(PID.TID 0000.0001) %MON dynstat_vvel_mean            =  -3.5431411427704E-08
(PID.TID 0000.0001) %MON dynstat_vvel_sd              =   4.2591303505117E-04
(PID.TID 0000.0001) %MON dynstat_vvel_del2            =   1.1309895168092E-06
(PID.TID 0000.0001) %MON dynstat_wvel_max             =   1.3058570205080E-03
(PID.TID 0000.0001) %MON dynstat_wvel_min             =  -1.5805334073125E-03
(PID.TID 0000.0001) %MON dynstat_wvel_mean            =   2.2016622213952E-10
(PID.TID 0000.0001) %MON dynstat_wvel_sd              =   2.1436998736638E-05
(PID.TID 0000.0001) %MON dynstat_wvel_del2            =   8.8327717348870E-08
(PID.TID 0000.0001) %MON dynstat_theta_max            =   1.2000000000000E+00
(PID.TID 0000.0001) %MON dynstat_theta_min            =  -1.0000000000000E+00
(PID.TID 0000.0001) %MON dynstat_theta_mean           =   5.6511553548121E-01
(PID.TID 0000.0001) %MON dynstat_theta_sd             =   8.4893310892535E-01
(PID.TID 0000.0001) %MON dynstat_theta_del2           =   3.1639603507210E-06
(PID.TID 0000.0001) %MON dynstat_salt_max             =   3.4700000000000E+01
(PID.TID 0000.0001) %MON dynstat_salt_min             =   3.4000000000000E+01
(PID.TID 0000.0001) %MON dynstat_salt_mean            =   3.4497960226555E+01
(PID.TID 0000.0001) %MON dynstat_salt_sd              =   2.7011026120652E-01
(PID.TID 0000.0001) %MON dynstat_salt_del2            =   1.2516959197663E-06
(PID.TID 0000.0001) %MON advcfl_uvel_max              =   3.2337112354499E-03
(PID.TID 0000.0001) %MON advcfl_vvel_max              =   2.2316415098148E-03
(PID.TID 0000.0001) %MON advcfl_wvel_max              =   7.9026670365626E-03
(PID.TID 0000.0001) %MON advcfl_W_hf_max              =   7.9026670365626E-03
(PID.TID 0000.0001) %MON pe_b_mean                    =  -6.8199969160548E-01
(PID.TID 0000.0001) %MON ke_max                       =   4.2042237903158E-04
(PID.TID 0000.0001) %MON ke_mean                      =   4.7452684164375E-07
(PID.TID 0000.0001) %MON ke_vol                       =   4.6183062669641E+12
(PID.TID 0000.0001) // =======================================================
(PID.TID 0000.0001) // End MONITOR dynamic field statistics
(PID.TID 0000.0001) // =======================================================
(PID.TID 0000.0001) // =======================================================
(PID.TID 0000.0001) // Begin OBCS MONITOR field statistics
(PID.TID 0000.0001) // =======================================================
(PID.TID 0000.0001) %MON obc_N_vVel_max               =  -5.5534285466204E-08
(PID.TID 0000.0001) %MON obc_N_vVel_min               =  -5.5534285466205E-08
(PID.TID 0000.0001) %MON obc_N_vVel_mean              =  -5.5534285466205E-08
(PID.TID 0000.0001) %MON obc_N_vVel_sd                =  -1.5303901561288E-28
(PID.TID 0000.0001) %MON obc_N_vVel_Int               =  -3.6652628407695E+00
(PID.TID 0000.0001) // =======================================================
(PID.TID 0000.0001) // End OBCS MONITOR field statistics
(PID.TID 0000.0001) // =======================================================
 cg2d: Sum(rhs),rhsMax =   3.00867066207503E+00  4.53043783145248E+02
(PID.TID 0000.0001)      cg2d_init_res =   3.67419136785332E-06
(PID.TID 0000.0001)      cg2d_iters(min,last) =      -1      75
(PID.TID 0000.0001)      cg2d_last_res =   8.95057793057017E-12
(PID.TID 0000.0001) // =======================================================
(PID.TID 0000.0001) // Begin MONITOR dynamic field statistics
(PID.TID 0000.0001) // =======================================================
(PID.TID 0000.0001) %MON time_tsnumber                =                  1179
(PID.TID 0000.0001) %MON time_secondsf                =   1.1790000000000E+05
(PID.TID 0000.0001) %MON dynstat_eta_max              =   5.7987306251118E+00
(PID.TID 0000.0001) %MON dynstat_eta_min              =  -1.4170922645309E+01
(PID.TID 0000.0001) %MON dynstat_eta_mean             =  -2.5241843314529E+00
(PID.TID 0000.0001) %MON dynstat_eta_sd               =   4.9411089216606E+00
(PID.TID 0000.0001) %MON dynstat_eta_del2             =   1.9058734495069E-01
(PID.TID 0000.0001) %MON dynstat_uvel_max             =   6.9484396489932E-03
(PID.TID 0000.0001) %MON dynstat_uvel_min             =  -3.2409040595623E-02
(PID.TID 0000.0001) %MON dynstat_uvel_mean            =   2.5843681895337E-09
(PID.TID 0000.0001) %MON dynstat_uvel_sd              =   8.8666536392660E-04
(PID.TID 0000.0001) %MON dynstat_uvel_del2            =   1.3573842048175E-06
(PID.TID 0000.0001) %MON dynstat_vvel_max             =   2.2356468305492E-02
(PID.TID 0000.0001) %MON dynstat_vvel_min             =  -8.4085872964055E-03
(PID.TID 0000.0001) %MON dynstat_vvel_mean            =  -5.0449295361199E-08
(PID.TID 0000.0001) %MON dynstat_vvel_sd              =   4.2676740879977E-04
(PID.TID 0000.0001) %MON dynstat_vvel_del2            =   1.1333483353204E-06
(PID.TID 0000.0001) %MON dynstat_wvel_max             =   1.3087320110036E-03
(PID.TID 0000.0001) %MON dynstat_wvel_min             =  -1.5848381749980E-03
(PID.TID 0000.0001) %MON dynstat_wvel_mean            =   2.3197239969228E-10
(PID.TID 0000.0001) %MON dynstat_wvel_sd              =   2.1491605153776E-05
(PID.TID 0000.0001) %MON dynstat_wvel_del2            =   8.8578666765137E-08
(PID.TID 0000.0001) %MON dynstat_theta_max            =   1.2000000000000E+00
(PID.TID 0000.0001) %MON dynstat_theta_min            =  -1.0000000000000E+00
(PID.TID 0000.0001) %MON dynstat_theta_mean           =   5.6511481233224E-01
(PID.TID 0000.0001) %MON dynstat_theta_sd             =   8.4893278793361E-01
(PID.TID 0000.0001) %MON dynstat_theta_del2           =   3.1702841873212E-06
(PID.TID 0000.0001) %MON dynstat_salt_max             =   3.4700000000000E+01
(PID.TID 0000.0001) %MON dynstat_salt_min             =   3.4000000000000E+01
(PID.TID 0000.0001) %MON dynstat_salt_mean            =   3.4497959937744E+01
(PID.TID 0000.0001) %MON dynstat_salt_sd              =   2.7011014010226E-01
(PID.TID 0000.0001) %MON dynstat_salt_del2            =   1.2542133975684E-06
(PID.TID 0000.0001) %MON advcfl_uvel_max              =   3.2409040595623E-03
(PID.TID 0000.0001) %MON advcfl_vvel_max              =   2.2356468305492E-03
(PID.TID 0000.0001) %MON advcfl_wvel_max              =   7.9241908749899E-03
(PID.TID 0000.0001) %MON advcfl_W_hf_max              =   7.9241908749899E-03
(PID.TID 0000.0001) %MON pe_b_mean                    =  -6.8199773805425E-01
(PID.TID 0000.0001) %MON ke_max                       =   4.2264969188277E-04
(PID.TID 0000.0001) %MON ke_mean                      =   4.7676078525395E-07
(PID.TID 0000.0001) %MON ke_vol                       =   4.6183063059332E+12
(PID.TID 0000.0001) // =======================================================
(PID.TID 0000.0001) // End MONITOR dynamic field statistics
(PID.TID 0000.0001) // =======================================================
(PID.TID 0000.0001) // =======================================================
(PID.TID 0000.0001) // Begin OBCS MONITOR field statistics
(PID.TID 0000.0001) // =======================================================
(PID.TID 0000.0001) %MON obc_N_vVel_max               =  -7.0839120769641E-08
(PID.TID 0000.0001) %MON obc_N_vVel_min               =  -7.0839120769644E-08
(PID.TID 0000.0001) %MON obc_N_vVel_mean              =  -7.0839120769641E-08
(PID.TID 0000.0001) %MON obc_N_vVel_sd                =   1.6663704229186E-14
(PID.TID 0000.0001) %MON obc_N_vVel_Int               =  -4.6753819707963E+00
(PID.TID 0000.0001) // =======================================================
(PID.TID 0000.0001) // End OBCS MONITOR field statistics
(PID.TID 0000.0001) // =======================================================
 cg2d: Sum(rhs),rhsMax =   3.00866291797444E+00  4.53043761763433E+02
(PID.TID 0000.0001)      cg2d_init_res =   3.68228578112168E-06
(PID.TID 0000.0001)      cg2d_iters(min,last) =      -1      75
(PID.TID 0000.0001)      cg2d_last_res =   8.97412807753414E-12
(PID.TID 0000.0001) // =======================================================
(PID.TID 0000.0001) // Begin MONITOR dynamic field statistics
(PID.TID 0000.0001) // =======================================================
(PID.TID 0000.0001) %MON time_tsnumber                =                  1180
(PID.TID 0000.0001) %MON time_secondsf                =   1.1800000000000E+05
(PID.TID 0000.0001) %MON dynstat_eta_max              =   5.7987335369637E+00
(PID.TID 0000.0001) %MON dynstat_eta_min              =  -1.4170908577808E+01
(PID.TID 0000.0001) %MON dynstat_eta_mean             =  -2.5241777152542E+00
(PID.TID 0000.0001) %MON dynstat_eta_sd               =   4.9411070055580E+00
(PID.TID 0000.0001) %MON dynstat_eta_del2             =   1.9058736437476E-01
(PID.TID 0000.0001) %MON dynstat_uvel_max             =   6.9653348138061E-03
(PID.TID 0000.0001) %MON dynstat_uvel_min             =  -3.2481031167337E-02
(PID.TID 0000.0001) %MON dynstat_uvel_mean            =   2.5485721215071E-09
(PID.TID 0000.0001) %MON dynstat_uvel_sd              =   8.8882145721310E-04
(PID.TID 0000.0001) %MON dynstat_uvel_del2            =   1.3606902114591E-06
(PID.TID 0000.0001) %MON dynstat_vvel_max             =   2.2396542565373E-02
(PID.TID 0000.0001) %MON dynstat_vvel_min             =  -8.4274209936792E-03
(PID.TID 0000.0001) %MON dynstat_vvel_mean            =  -6.4278230933901E-08
(PID.TID 0000.0001) %MON dynstat_vvel_sd              =   4.2762260768472E-04
(PID.TID 0000.0001) %MON dynstat_vvel_del2            =   1.1357061772352E-06
(PID.TID 0000.0001) %MON dynstat_wvel_max             =   1.3116105110019E-03
(PID.TID 0000.0001) %MON dynstat_wvel_min             =  -1.5891495702627E-03
(PID.TID 0000.0001) %MON dynstat_wvel_mean            =   2.4503285634582E-10
(PID.TID 0000.0001) %MON dynstat_wvel_sd              =   2.1542644266334E-05
(PID.TID 0000.0001) %MON dynstat_wvel_del2            =   8.8809997041064E-08
(PID.TID 0000.0001) %MON dynstat_theta_max            =   1.2000000000000E+00
(PID.TID 0000.0001) %MON dynstat_theta_min            =  -1.0000000000000E+00
(PID.TID 0000.0001) %MON dynstat_theta_mean           =   5.6511408791361E-01
(PID.TID 0000.0001) %MON dynstat_theta_sd             =   8.4893246629763E-01
(PID.TID 0000.0001) %MON dynstat_theta_del2           =   3.1766255663470E-06
(PID.TID 0000.0001) %MON dynstat_salt_max             =   3.4700000000000E+01
(PID.TID 0000.0001) %MON dynstat_salt_min             =   3.4000000000000E+01
(PID.TID 0000.0001) %MON dynstat_salt_mean            =   3.4497959648425E+01
(PID.TID 0000.0001) %MON dynstat_salt_sd              =   2.7011001875191E-01
(PID.TID 0000.0001) %MON dynstat_salt_del2            =   1.2567367312772E-06
(PID.TID 0000.0001) %MON advcfl_uvel_max              =   3.2481031167337E-03
(PID.TID 0000.0001) %MON advcfl_vvel_max              =   2.2396542565373E-03
(PID.TID 0000.0001) %MON advcfl_wvel_max              =   7.9457478513136E-03
(PID.TID 0000.0001) %MON advcfl_W_hf_max              =   7.9457478513136E-03
(PID.TID 0000.0001) %MON pe_b_mean                    =  -6.8199577805541E-01
(PID.TID 0000.0001) %MON ke_max                       =   4.2488694209889E-04
(PID.TID 0000.0001) %MON ke_mean                      =   4.7900418843773E-07
(PID.TID 0000.0001) %MON ke_vol                       =   4.6183063450712E+12
(PID.TID 0000.0001) // =======================================================
(PID.TID 0000.0001) // End MONITOR dynamic field statistics
(PID.TID 0000.0001) // =======================================================
(PID.TID 0000.0001) // =======================================================
(PID.TID 0000.0001) // Begin OBCS MONITOR field statistics
(PID.TID 0000.0001) // =======================================================
(PID.TID 0000.0001) %MON obc_N_vVel_max               =  -8.5128165586219E-08
(PID.TID 0000.0001) %MON obc_N_vVel_min               =  -8.5128165586220E-08
(PID.TID 0000.0001) %MON obc_N_vVel_mean              =  -8.5128165586219E-08
(PID.TID 0000.0001) %MON obc_N_vVel_sd                =   1.5177199488856E-14
(PID.TID 0000.0001) %MON obc_N_vVel_Int               =  -5.6184589286904E+00
(PID.TID 0000.0001) // =======================================================
(PID.TID 0000.0001) // End OBCS MONITOR field statistics
(PID.TID 0000.0001) // =======================================================
 cg2d: Sum(rhs),rhsMax =   3.00865514257413E+00  4.53043740432158E+02
(PID.TID 0000.0001)      cg2d_init_res =   3.68998007146037E-06
(PID.TID 0000.0001)      cg2d_iters(min,last) =      -1      75
(PID.TID 0000.0001)      cg2d_last_res =   8.99742188339699E-12
(PID.TID 0000.0001) // =======================================================
(PID.TID 0000.0001) // Begin MONITOR dynamic field statistics
(PID.TID 0000.0001) // =======================================================
(PID.TID 0000.0001) %MON time_tsnumber                =                  1181
(PID.TID 0000.0001) %MON time_secondsf                =   1.1810000000000E+05
(PID.TID 0000.0001) %MON dynstat_eta_max              =   5.7987364710814E+00
(PID.TID 0000.0001) %MON dynstat_eta_min              =  -1.4170894463784E+01
(PID.TID 0000.0001) %MON dynstat_eta_mean             =  -2.5241710730782E+00
(PID.TID 0000.0001) %MON dynstat_eta_sd               =   4.9411050826719E+00
(PID.TID 0000.0001) %MON dynstat_eta_del2             =   1.9058738382603E-01
(PID.TID 0000.0001) %MON dynstat_uvel_max             =   6.9822641436010E-03
(PID.TID 0000.0001) %MON dynstat_uvel_min             =  -3.2553083759767E-02
(PID.TID 0000.0001) %MON dynstat_uvel_mean            =   2.5045948890767E-09
(PID.TID 0000.0001) %MON dynstat_uvel_sd              =   8.9098195643370E-04
(PID.TID 0000.0001) %MON dynstat_uvel_del2            =   1.3640038727669E-06
(PID.TID 0000.0001) %MON dynstat_vvel_max             =   2.2436637804826E-02
(PID.TID 0000.0001) %MON dynstat_vvel_min             =  -8.4462777307579E-03
(PID.TID 0000.0001) %MON dynstat_vvel_mean            =  -7.6720537335488E-08
(PID.TID 0000.0001) %MON dynstat_vvel_sd              =   4.2847857932070E-04
(PID.TID 0000.0001) %MON dynstat_vvel_del2            =   1.1380622577521E-06
(PID.TID 0000.0001) %MON dynstat_wvel_max             =   1.3144925156874E-03
(PID.TID 0000.0001) %MON dynstat_wvel_min             =  -1.5934675727414E-03
(PID.TID 0000.0001) %MON dynstat_wvel_mean            =   2.5916488645146E-10
(PID.TID 0000.0001) %MON dynstat_wvel_sd              =   2.1589955612337E-05
(PID.TID 0000.0001) %MON dynstat_wvel_del2            =   8.9019238569187E-08
(PID.TID 0000.0001) %MON dynstat_theta_max            =   1.2000000000000E+00
(PID.TID 0000.0001) %MON dynstat_theta_min            =  -1.0000000000000E+00
(PID.TID 0000.0001) %MON dynstat_theta_mean           =   5.6511336222371E-01
(PID.TID 0000.0001) %MON dynstat_theta_sd             =   8.4893214401788E-01
(PID.TID 0000.0001) %MON dynstat_theta_del2           =   3.1829853095657E-06
(PID.TID 0000.0001) %MON dynstat_salt_max             =   3.4700000000000E+01
(PID.TID 0000.0001) %MON dynstat_salt_min             =   3.4000000000000E+01
(PID.TID 0000.0001) %MON dynstat_salt_mean            =   3.4497959358597E+01
(PID.TID 0000.0001) %MON dynstat_salt_sd              =   2.7010989715543E-01
(PID.TID 0000.0001) %MON dynstat_salt_del2            =   1.2592661076358E-06
(PID.TID 0000.0001) %MON advcfl_uvel_max              =   3.2553083759767E-03
(PID.TID 0000.0001) %MON advcfl_vvel_max              =   2.2436637804826E-03
(PID.TID 0000.0001) %MON advcfl_wvel_max              =   7.9673378637071E-03
(PID.TID 0000.0001) %MON advcfl_W_hf_max              =   7.9673378637071E-03
(PID.TID 0000.0001) %MON pe_b_mean                    =  -6.8199381191317E-01
(PID.TID 0000.0001) %MON ke_max                       =   4.2713416565982E-04
(PID.TID 0000.0001) %MON ke_mean                      =   4.8125706730108E-07
(PID.TID 0000.0001) %MON ke_vol                       =   4.6183063843714E+12
(PID.TID 0000.0001) // =======================================================
(PID.TID 0000.0001) // End MONITOR dynamic field statistics
(PID.TID 0000.0001) // =======================================================
(PID.TID 0000.0001) // =======================================================
(PID.TID 0000.0001) // Begin OBCS MONITOR field statistics
(PID.TID 0000.0001) // =======================================================
(PID.TID 0000.0001) %MON obc_N_vVel_max               =  -9.8197851856231E-08
(PID.TID 0000.0001) %MON obc_N_vVel_min               =  -9.8197851856233E-08
(PID.TID 0000.0001) %MON obc_N_vVel_mean              =  -9.8197851856231E-08
(PID.TID 0000.0001) %MON obc_N_vVel_sd                =   2.5864145986818E-14
(PID.TID 0000.0001) %MON obc_N_vVel_Int               =  -6.4810582225113E+00
(PID.TID 0000.0001) // =======================================================
(PID.TID 0000.0001) // End OBCS MONITOR field statistics
(PID.TID 0000.0001) // =======================================================
 cg2d: Sum(rhs),rhsMax =   3.00864733706136E+00  4.53043719249493E+02
(PID.TID 0000.0001)      cg2d_init_res =   3.69725054993612E-06
(PID.TID 0000.0001)      cg2d_iters(min,last) =      -1      75
(PID.TID 0000.0001)      cg2d_last_res =   9.02041245942264E-12
(PID.TID 0000.0001) // =======================================================
(PID.TID 0000.0001) // Begin MONITOR dynamic field statistics
(PID.TID 0000.0001) // =======================================================
(PID.TID 0000.0001) %MON time_tsnumber                =                  1182
(PID.TID 0000.0001) %MON time_secondsf                =   1.1820000000000E+05
(PID.TID 0000.0001) %MON dynstat_eta_max              =   5.7987394246981E+00
(PID.TID 0000.0001) %MON dynstat_eta_min              =  -1.4170880306380E+01
(PID.TID 0000.0001) %MON dynstat_eta_mean             =  -2.5241644064673E+00
(PID.TID 0000.0001) %MON dynstat_eta_sd               =   4.9411031536664E+00
(PID.TID 0000.0001) %MON dynstat_eta_del2             =   1.9058740330646E-01
(PID.TID 0000.0001) %MON dynstat_uvel_max             =   6.9992276426030E-03
(PID.TID 0000.0001) %MON dynstat_uvel_min             =  -3.2625198060784E-02
(PID.TID 0000.0001) %MON dynstat_uvel_mean            =   2.4532617131224E-09
(PID.TID 0000.0001) %MON dynstat_uvel_sd              =   8.9314687133649E-04
(PID.TID 0000.0001) %MON dynstat_uvel_del2            =   1.3673252047983E-06
(PID.TID 0000.0001) %MON dynstat_vvel_max             =   2.2476753948381E-02
(PID.TID 0000.0001) %MON dynstat_vvel_min             =  -8.4651574085428E-03
(PID.TID 0000.0001) %MON dynstat_vvel_mean            =  -8.7599200426884E-08
(PID.TID 0000.0001) %MON dynstat_vvel_sd              =   4.2933532410921E-04
(PID.TID 0000.0001) %MON dynstat_vvel_del2            =   1.1404161704551E-06
(PID.TID 0000.0001) %MON dynstat_wvel_max             =   1.3173780202538E-03
(PID.TID 0000.0001) %MON dynstat_wvel_min             =  -1.5977921615748E-03
(PID.TID 0000.0001) %MON dynstat_wvel_mean            =   2.7417039597942E-10
(PID.TID 0000.0001) %MON dynstat_wvel_sd              =   2.1633601972235E-05
(PID.TID 0000.0001) %MON dynstat_wvel_del2            =   8.9205234636910E-08
(PID.TID 0000.0001) %MON dynstat_theta_max            =   1.2000000000000E+00
(PID.TID 0000.0001) %MON dynstat_theta_min            =  -1.0000000000000E+00
(PID.TID 0000.0001) %MON dynstat_theta_mean           =   5.6511263526105E-01
(PID.TID 0000.0001) %MON dynstat_theta_sd             =   8.4893182109536E-01
(PID.TID 0000.0001) %MON dynstat_theta_del2           =   3.1893637076605E-06
(PID.TID 0000.0001) %MON dynstat_salt_max             =   3.4700000000000E+01
(PID.TID 0000.0001) %MON dynstat_salt_min             =   3.4000000000000E+01
(PID.TID 0000.0001) %MON dynstat_salt_mean            =   3.4497959068259E+01
(PID.TID 0000.0001) %MON dynstat_salt_sd              =   2.7010977531320E-01
(PID.TID 0000.0001) %MON dynstat_salt_del2            =   1.2618015758464E-06
(PID.TID 0000.0001) %MON advcfl_uvel_max              =   3.2625198060784E-03
(PID.TID 0000.0001) %MON advcfl_vvel_max              =   2.2476753948381E-03
(PID.TID 0000.0001) %MON advcfl_wvel_max              =   7.9889608078741E-03
(PID.TID 0000.0001) %MON advcfl_W_hf_max              =   7.9889608078741E-03
(PID.TID 0000.0001) %MON pe_b_mean                    =  -6.8199183996842E-01
(PID.TID 0000.0001) %MON ke_max                       =   4.2939139862768E-04
(PID.TID 0000.0001) %MON ke_mean                      =   4.8351946049682E-07
(PID.TID 0000.0001) %MON ke_vol                       =   4.6183064238259E+12
(PID.TID 0000.0001) // =======================================================
(PID.TID 0000.0001) // End MONITOR dynamic field statistics
(PID.TID 0000.0001) // =======================================================
(PID.TID 0000.0001) // =======================================================
(PID.TID 0000.0001) // Begin OBCS MONITOR field statistics
(PID.TID 0000.0001) // =======================================================
(PID.TID 0000.0001) %MON obc_N_vVel_max               =  -1.0986284706419E-07
(PID.TID 0000.0001) %MON obc_N_vVel_min               =  -1.0986284706420E-07
(PID.TID 0000.0001) %MON obc_N_vVel_mean              =  -1.0986284706420E-07
(PID.TID 0000.0001) %MON obc_N_vVel_sd                =  -3.4078791105548E-28
(PID.TID 0000.0001) %MON obc_N_vVel_Int               =  -7.2509479062370E+00
(PID.TID 0000.0001) // =======================================================
(PID.TID 0000.0001) // End OBCS MONITOR field statistics
(PID.TID 0000.0001) // =======================================================
 cg2d: Sum(rhs),rhsMax =   3.00863950285629E+00  4.53043698311089E+02
(PID.TID 0000.0001)      cg2d_init_res =   3.70408841827239E-06
(PID.TID 0000.0001)      cg2d_iters(min,last) =      -1      75
(PID.TID 0000.0001)      cg2d_last_res =   9.04305313415353E-12
(PID.TID 0000.0001) // =======================================================
(PID.TID 0000.0001) // Begin MONITOR dynamic field statistics
(PID.TID 0000.0001) // =======================================================
(PID.TID 0000.0001) %MON time_tsnumber                =                  1183
(PID.TID 0000.0001) %MON time_secondsf                =   1.1830000000000E+05
(PID.TID 0000.0001) %MON dynstat_eta_max              =   5.7987423947839E+00
(PID.TID 0000.0001) %MON dynstat_eta_min              =  -1.4170866109036E+01
(PID.TID 0000.0001) %MON dynstat_eta_mean             =  -2.5241577171460E+00
(PID.TID 0000.0001) %MON dynstat_eta_sd               =   4.9411012192450E+00
(PID.TID 0000.0001) %MON dynstat_eta_del2             =   1.9058742281803E-01
(PID.TID 0000.0001) %MON dynstat_uvel_max             =   7.0162253148567E-03
(PID.TID 0000.0001) %MON dynstat_uvel_min             =  -3.2697373755666E-02
(PID.TID 0000.0001) %MON dynstat_uvel_mean            =   2.3955069132028E-09
(PID.TID 0000.0001) %MON dynstat_uvel_sd              =   8.9531621158951E-04
(PID.TID 0000.0001) %MON dynstat_uvel_del2            =   1.3706542230225E-06
(PID.TID 0000.0001) %MON dynstat_vvel_max             =   2.2516890917677E-02
(PID.TID 0000.0001) %MON dynstat_vvel_min             =  -8.4840599316680E-03
(PID.TID 0000.0001) %MON dynstat_vvel_mean            =  -9.6760469906082E-08
(PID.TID 0000.0001) %MON dynstat_vvel_sd              =   4.3019289363345E-04
(PID.TID 0000.0001) %MON dynstat_vvel_del2            =   1.1427678895180E-06
(PID.TID 0000.0001) %MON dynstat_wvel_max             =   1.3202670198830E-03
(PID.TID 0000.0001) %MON dynstat_wvel_min             =  -1.6021233154416E-03
(PID.TID 0000.0001) %MON dynstat_wvel_mean            =   2.8983878266605E-10
(PID.TID 0000.0001) %MON dynstat_wvel_sd              =   2.1673858442535E-05
(PID.TID 0000.0001) %MON dynstat_wvel_del2            =   8.9368136772299E-08
(PID.TID 0000.0001) %MON dynstat_theta_max            =   1.2000000000000E+00
(PID.TID 0000.0001) %MON dynstat_theta_min            =  -1.0000000000000E+00
(PID.TID 0000.0001) %MON dynstat_theta_mean           =   5.6511190702420E-01
(PID.TID 0000.0001) %MON dynstat_theta_sd             =   8.4893149753130E-01
(PID.TID 0000.0001) %MON dynstat_theta_del2           =   3.1957604042628E-06
(PID.TID 0000.0001) %MON dynstat_salt_max             =   3.4700000000000E+01
(PID.TID 0000.0001) %MON dynstat_salt_min             =   3.4000000000000E+01
(PID.TID 0000.0001) %MON dynstat_salt_mean            =   3.4497958777412E+01
(PID.TID 0000.0001) %MON dynstat_salt_sd              =   2.7010965322546E-01
(PID.TID 0000.0001) %MON dynstat_salt_del2            =   1.2643430514584E-06
(PID.TID 0000.0001) %MON advcfl_uvel_max              =   3.2697373755666E-03
(PID.TID 0000.0001) %MON advcfl_vvel_max              =   2.2516890917677E-03
(PID.TID 0000.0001) %MON advcfl_wvel_max              =   8.0106165772079E-03
(PID.TID 0000.0001) %MON advcfl_W_hf_max              =   8.0106165772079E-03
(PID.TID 0000.0001) %MON pe_b_mean                    =  -6.8198986259346E-01
(PID.TID 0000.0001) %MON ke_max                       =   4.3165867714691E-04
(PID.TID 0000.0001) %MON ke_mean                      =   4.8579142876943E-07
(PID.TID 0000.0001) %MON ke_vol                       =   4.6183064634256E+12
(PID.TID 0000.0001) // =======================================================
(PID.TID 0000.0001) // End MONITOR dynamic field statistics
(PID.TID 0000.0001) // =======================================================
(PID.TID 0000.0001) // =======================================================
(PID.TID 0000.0001) // Begin OBCS MONITOR field statistics
(PID.TID 0000.0001) // =======================================================
(PID.TID 0000.0001) %MON obc_N_vVel_max               =  -1.1995876498729E-07
(PID.TID 0000.0001) %MON obc_N_vVel_min               =  -1.1995876498729E-07
(PID.TID 0000.0001) %MON obc_N_vVel_mean              =  -1.1995876498729E-07
(PID.TID 0000.0001) %MON obc_N_vVel_sd                =   9.8903363060821E-15
(PID.TID 0000.0001) %MON obc_N_vVel_Int               =  -7.9172784891614E+00
(PID.TID 0000.0001) // =======================================================
(PID.TID 0000.0001) // End OBCS MONITOR field statistics
(PID.TID 0000.0001) // =======================================================
 cg2d: Sum(rhs),rhsMax =   3.00863164159500E+00  4.53043677708295E+02
(PID.TID 0000.0001)      cg2d_init_res =   3.71050037631239E-06
(PID.TID 0000.0001)      cg2d_iters(min,last) =      -1      75
(PID.TID 0000.0001)      cg2d_last_res =   9.06529940309488E-12
(PID.TID 0000.0001) // =======================================================
(PID.TID 0000.0001) // Begin MONITOR dynamic field statistics
(PID.TID 0000.0001) // =======================================================
(PID.TID 0000.0001) %MON time_tsnumber                =                  1184
(PID.TID 0000.0001) %MON time_secondsf                =   1.1840000000000E+05
(PID.TID 0000.0001) %MON dynstat_eta_max              =   5.7987453780927E+00
(PID.TID 0000.0001) %MON dynstat_eta_min              =  -1.4170851875437E+01
(PID.TID 0000.0001) %MON dynstat_eta_mean             =  -2.5241510069958E+00
(PID.TID 0000.0001) %MON dynstat_eta_sd               =   4.9410992801401E+00
(PID.TID 0000.0001) %MON dynstat_eta_del2             =   1.9058744236282E-01
(PID.TID 0000.0001) %MON dynstat_uvel_max             =   7.0332571642355E-03
(PID.TID 0000.0001) %MON dynstat_uvel_min             =  -3.2769610527541E-02
(PID.TID 0000.0001) %MON dynstat_uvel_mean            =   2.3323578744370E-09
(PID.TID 0000.0001) %MON dynstat_uvel_sd              =   8.9748998677136E-04
(PID.TID 0000.0001) %MON dynstat_uvel_del2            =   1.3739909417910E-06
(PID.TID 0000.0001) %MON dynstat_vvel_max             =   2.2557048631295E-02
(PID.TID 0000.0001) %MON dynstat_vvel_min             =  -8.5029852087388E-03
(PID.TID 0000.0001) %MON dynstat_vvel_mean            =  -1.0407611474036E-07
(PID.TID 0000.0001) %MON dynstat_vvel_sd              =   4.3105138608036E-04
(PID.TID 0000.0001) %MON dynstat_vvel_del2            =   1.1451177500039E-06
(PID.TID 0000.0001) %MON dynstat_wvel_max             =   1.3231595097846E-03
(PID.TID 0000.0001) %MON dynstat_wvel_min             =  -1.6064610124680E-03
(PID.TID 0000.0001) %MON dynstat_wvel_mean            =   3.0594985085424E-10
(PID.TID 0000.0001) %MON dynstat_wvel_sd              =   2.1711189689614E-05
(PID.TID 0000.0001) %MON dynstat_wvel_del2            =   8.9509330567078E-08
(PID.TID 0000.0001) %MON dynstat_theta_max            =   1.2000000000000E+00
(PID.TID 0000.0001) %MON dynstat_theta_min            =  -1.0000000000000E+00
(PID.TID 0000.0001) %MON dynstat_theta_mean           =   5.6511117751188E-01
(PID.TID 0000.0001) %MON dynstat_theta_sd             =   8.4893117332609E-01
(PID.TID 0000.0001) %MON dynstat_theta_del2           =   3.2021745869944E-06
(PID.TID 0000.0001) %MON dynstat_salt_max             =   3.4700000000000E+01
(PID.TID 0000.0001) %MON dynstat_salt_min             =   3.4000000000000E+01
(PID.TID 0000.0001) %MON dynstat_salt_mean            =   3.4497958486054E+01
(PID.TID 0000.0001) %MON dynstat_salt_sd              =   2.7010953089209E-01
(PID.TID 0000.0001) %MON dynstat_salt_del2            =   1.2668887148057E-06
(PID.TID 0000.0001) %MON advcfl_uvel_max              =   3.2769610527541E-03
(PID.TID 0000.0001) %MON advcfl_vvel_max              =   2.2557048631295E-03
(PID.TID 0000.0001) %MON advcfl_wvel_max              =   8.0323050623398E-03
(PID.TID 0000.0001) %MON advcfl_W_hf_max              =   8.0323050623398E-03
(PID.TID 0000.0001) %MON pe_b_mean                    =  -6.8198788018662E-01
(PID.TID 0000.0001) %MON ke_max                       =   4.3393603744534E-04
(PID.TID 0000.0001) %MON ke_mean                      =   4.8807305319668E-07
(PID.TID 0000.0001) %MON ke_vol                       =   4.6183065031602E+12
(PID.TID 0000.0001) // =======================================================
(PID.TID 0000.0001) // End MONITOR dynamic field statistics
(PID.TID 0000.0001) // =======================================================
(PID.TID 0000.0001) // =======================================================
(PID.TID 0000.0001) // Begin OBCS MONITOR field statistics
(PID.TID 0000.0001) // =======================================================
(PID.TID 0000.0001) %MON obc_N_vVel_max               =  -1.2834456075223E-07
(PID.TID 0000.0001) %MON obc_N_vVel_min               =  -1.2834456075223E-07
(PID.TID 0000.0001) %MON obc_N_vVel_mean              =  -1.2834456075223E-07
(PID.TID 0000.0001) %MON obc_N_vVel_sd                =  -5.9637884434708E-28
(PID.TID 0000.0001) %MON obc_N_vVel_Int               =  -8.4707410096475E+00
(PID.TID 0000.0001) // =======================================================
(PID.TID 0000.0001) // End OBCS MONITOR field statistics
(PID.TID 0000.0001) // =======================================================
 cg2d: Sum(rhs),rhsMax =   3.00862375510285E+00  4.53043657527136E+02
(PID.TID 0000.0001)      cg2d_init_res =   3.71636002763506E-06
(PID.TID 0000.0001)      cg2d_iters(min,last) =      -1      75
(PID.TID 0000.0001)      cg2d_last_res =   9.08740862006977E-12
(PID.TID 0000.0001) // =======================================================
(PID.TID 0000.0001) // Begin MONITOR dynamic field statistics
(PID.TID 0000.0001) // =======================================================
(PID.TID 0000.0001) %MON time_tsnumber                =                  1185
(PID.TID 0000.0001) %MON time_secondsf                =   1.1850000000000E+05
(PID.TID 0000.0001) %MON dynstat_eta_max              =   5.7987483711947E+00
(PID.TID 0000.0001) %MON dynstat_eta_min              =  -1.4170837609457E+01
(PID.TID 0000.0001) %MON dynstat_eta_mean             =  -2.5241442780274E+00
(PID.TID 0000.0001) %MON dynstat_eta_sd               =   4.9410973370824E+00
(PID.TID 0000.0001) %MON dynstat_eta_del2             =   1.9058746194139E-01
(PID.TID 0000.0001) %MON dynstat_uvel_max             =   7.0503231944521E-03
(PID.TID 0000.0001) %MON dynstat_uvel_min             =  -3.2841908056804E-02
(PID.TID 0000.0001) %MON dynstat_uvel_mean            =   2.2648735314863E-09
(PID.TID 0000.0001) %MON dynstat_uvel_sd              =   8.9966820656935E-04
(PID.TID 0000.0001) %MON dynstat_uvel_del2            =   1.3773353619814E-06
(PID.TID 0000.0001) %MON dynstat_vvel_max             =   2.2597227004465E-02
(PID.TID 0000.0001) %MON dynstat_vvel_min             =  -8.5219331523332E-03
(PID.TID 0000.0001) %MON dynstat_vvel_mean            =  -1.0944526755406E-07
(PID.TID 0000.0001) %MON dynstat_vvel_sd              =   4.3191093954731E-04
(PID.TID 0000.0001) %MON dynstat_vvel_del2            =   1.1474664155827E-06
(PID.TID 0000.0001) %MON dynstat_wvel_max             =   1.3260554852012E-03
(PID.TID 0000.0001) %MON dynstat_wvel_min             =  -1.6108052302676E-03
(PID.TID 0000.0001) %MON dynstat_wvel_mean            =   3.2227905925961E-10
(PID.TID 0000.0001) %MON dynstat_wvel_sd              =   2.1746217130815E-05
(PID.TID 0000.0001) %MON dynstat_wvel_del2            =   8.9631302029741E-08
(PID.TID 0000.0001) %MON dynstat_theta_max            =   1.2000000000000E+00
(PID.TID 0000.0001) %MON dynstat_theta_min            =  -1.0000000000000E+00
(PID.TID 0000.0001) %MON dynstat_theta_mean           =   5.6511044672300E-01
(PID.TID 0000.0001) %MON dynstat_theta_sd             =   8.4893084848078E-01
(PID.TID 0000.0001) %MON dynstat_theta_del2           =   3.2086050779029E-06
(PID.TID 0000.0001) %MON dynstat_salt_max             =   3.4700000000000E+01
(PID.TID 0000.0001) %MON dynstat_salt_min             =   3.4000000000000E+01
(PID.TID 0000.0001) %MON dynstat_salt_mean            =   3.4497958194184E+01
(PID.TID 0000.0001) %MON dynstat_salt_sd              =   2.7010940831336E-01
(PID.TID 0000.0001) %MON dynstat_salt_del2            =   1.2694397740464E-06
(PID.TID 0000.0001) %MON advcfl_uvel_max              =   3.2841908056804E-03
(PID.TID 0000.0001) %MON advcfl_vvel_max              =   2.2597227004465E-03
(PID.TID 0000.0001) %MON advcfl_wvel_max              =   8.0540261513381E-03
(PID.TID 0000.0001) %MON advcfl_W_hf_max              =   8.0540261513381E-03
(PID.TID 0000.0001) %MON pe_b_mean                    =  -6.8198589316629E-01
(PID.TID 0000.0001) %MON ke_max                       =   4.3622351580406E-04
(PID.TID 0000.0001) %MON ke_mean                      =   4.9036443267763E-07
(PID.TID 0000.0001) %MON ke_vol                       =   4.6183065430184E+12
(PID.TID 0000.0001) // =======================================================
(PID.TID 0000.0001) // End MONITOR dynamic field statistics
(PID.TID 0000.0001) // =======================================================
(PID.TID 0000.0001) // =======================================================
(PID.TID 0000.0001) // Begin OBCS MONITOR field statistics
(PID.TID 0000.0001) // =======================================================
(PID.TID 0000.0001) %MON obc_N_vVel_max               =  -1.3490458740078E-07
(PID.TID 0000.0001) %MON obc_N_vVel_min               =  -1.3490458740078E-07
(PID.TID 0000.0001) %MON obc_N_vVel_mean              =  -1.3490458740078E-07
(PID.TID 0000.0001) %MON obc_N_vVel_sd                =  -2.5243548967072E-29
(PID.TID 0000.0001) %MON obc_N_vVel_Int               =  -8.9037027684513E+00
(PID.TID 0000.0001) // =======================================================
(PID.TID 0000.0001) // End OBCS MONITOR field statistics
(PID.TID 0000.0001) // =======================================================
 cg2d: Sum(rhs),rhsMax =   3.00861584536663E+00  4.53043637846925E+02
(PID.TID 0000.0001)      cg2d_init_res =   3.72200545903536E-06
(PID.TID 0000.0001)      cg2d_iters(min,last) =      -1      75
(PID.TID 0000.0001)      cg2d_last_res =   9.10878671899299E-12
(PID.TID 0000.0001) // =======================================================
(PID.TID 0000.0001) // Begin MONITOR dynamic field statistics
(PID.TID 0000.0001) // =======================================================
(PID.TID 0000.0001) %MON time_tsnumber                =                  1186
(PID.TID 0000.0001) %MON time_secondsf                =   1.1860000000000E+05
(PID.TID 0000.0001) %MON dynstat_eta_max              =   5.7987513705457E+00
(PID.TID 0000.0001) %MON dynstat_eta_min              =  -1.4170823315097E+01
(PID.TID 0000.0001) %MON dynstat_eta_mean             =  -2.5241375323496E+00
(PID.TID 0000.0001) %MON dynstat_eta_sd               =   4.9410953908473E+00
(PID.TID 0000.0001) %MON dynstat_eta_del2             =   1.9058748155754E-01
(PID.TID 0000.0001) %MON dynstat_uvel_max             =   7.0674234089712E-03
(PID.TID 0000.0001) %MON dynstat_uvel_min             =  -3.2914266021791E-02
(PID.TID 0000.0001) %MON dynstat_uvel_mean            =   2.1942522910984E-09
(PID.TID 0000.0001) %MON dynstat_uvel_sd              =   9.0185088054493E-04
(PID.TID 0000.0001) %MON dynstat_uvel_del2            =   1.3806874995486E-06
(PID.TID 0000.0001) %MON dynstat_vvel_max             =   2.2637425948877E-02
(PID.TID 0000.0001) %MON dynstat_vvel_min             =  -8.5409036805735E-03
(PID.TID 0000.0001) %MON dynstat_vvel_mean            =  -1.1279598339648E-07
(PID.TID 0000.0001) %MON dynstat_vvel_sd              =   4.3277172196770E-04
(PID.TID 0000.0001) %MON dynstat_vvel_del2            =   1.1498148093479E-06
(PID.TID 0000.0001) %MON dynstat_wvel_max             =   1.3289549413990E-03
(PID.TID 0000.0001) %MON dynstat_wvel_min             =  -1.6151559457751E-03
(PID.TID 0000.0001) %MON dynstat_wvel_mean            =   3.3859392073966E-10
(PID.TID 0000.0001) %MON dynstat_wvel_sd              =   2.1779677991579E-05
(PID.TID 0000.0001) %MON dynstat_wvel_del2            =   8.9737451070480E-08
(PID.TID 0000.0001) %MON dynstat_theta_max            =   1.2000000000000E+00
(PID.TID 0000.0001) %MON dynstat_theta_min            =  -1.0000000000000E+00
(PID.TID 0000.0001) %MON dynstat_theta_mean           =   5.6510971465652E-01
(PID.TID 0000.0001) %MON dynstat_theta_sd             =   8.4893052299436E-01
(PID.TID 0000.0001) %MON dynstat_theta_del2           =   3.2150505190596E-06
(PID.TID 0000.0001) %MON dynstat_salt_max             =   3.4700000000000E+01
(PID.TID 0000.0001) %MON dynstat_salt_min             =   3.4000000000000E+01
(PID.TID 0000.0001) %MON dynstat_salt_mean            =   3.4497957901803E+01
(PID.TID 0000.0001) %MON dynstat_salt_sd              =   2.7010928548919E-01
(PID.TID 0000.0001) %MON dynstat_salt_del2            =   1.2719958851209E-06
(PID.TID 0000.0001) %MON advcfl_uvel_max              =   3.2914266021791E-03
(PID.TID 0000.0001) %MON advcfl_vvel_max              =   2.2637425948877E-03
(PID.TID 0000.0001) %MON advcfl_wvel_max              =   8.0757797288754E-03
(PID.TID 0000.0001) %MON advcfl_W_hf_max              =   8.0757797288754E-03
(PID.TID 0000.0001) %MON pe_b_mean                    =  -6.8198390196448E-01
(PID.TID 0000.0001) %MON ke_max                       =   4.3852114861136E-04
(PID.TID 0000.0001) %MON ke_mean                      =   4.9266567954255E-07
(PID.TID 0000.0001) %MON ke_vol                       =   4.6183065829885E+12
(PID.TID 0000.0001) // =======================================================
(PID.TID 0000.0001) // End MONITOR dynamic field statistics
(PID.TID 0000.0001) // =======================================================
(PID.TID 0000.0001) // =======================================================
(PID.TID 0000.0001) // Begin OBCS MONITOR field statistics
(PID.TID 0000.0001) // =======================================================
(PID.TID 0000.0001) %MON obc_N_vVel_max               =  -1.3955031004647E-07
(PID.TID 0000.0001) %MON obc_N_vVel_min               =  -1.3955031004647E-07
(PID.TID 0000.0001) %MON obc_N_vVel_mean              =  -1.3955031004647E-07
(PID.TID 0000.0001) %MON obc_N_vVel_sd                =   1.4321446692198E-14
(PID.TID 0000.0001) %MON obc_N_vVel_Int               =  -9.2103204630672E+00
(PID.TID 0000.0001) // =======================================================
(PID.TID 0000.0001) // End OBCS MONITOR field statistics
(PID.TID 0000.0001) // =======================================================
 cg2d: Sum(rhs),rhsMax =   3.00860791450431E+00  4.53043618739248E+02
(PID.TID 0000.0001)      cg2d_init_res =   3.72732327301214E-06
(PID.TID 0000.0001)      cg2d_iters(min,last) =      -1      75
(PID.TID 0000.0001)      cg2d_last_res =   9.12967817578012E-12
(PID.TID 0000.0001) // =======================================================
(PID.TID 0000.0001) // Begin MONITOR dynamic field statistics
(PID.TID 0000.0001) // =======================================================
(PID.TID 0000.0001) %MON time_tsnumber                =                  1187
(PID.TID 0000.0001) %MON time_secondsf                =   1.1870000000000E+05
(PID.TID 0000.0001) %MON dynstat_eta_max              =   5.7987543725432E+00
(PID.TID 0000.0001) %MON dynstat_eta_min              =  -1.4170808996436E+01
(PID.TID 0000.0001) %MON dynstat_eta_mean             =  -2.5241307721381E+00
(PID.TID 0000.0001) %MON dynstat_eta_sd               =   4.9410934421869E+00
(PID.TID 0000.0001) %MON dynstat_eta_del2             =   1.9058750121330E-01
(PID.TID 0000.0001) %MON dynstat_uvel_max             =   7.0845578116616E-03
(PID.TID 0000.0001) %MON dynstat_uvel_min             =  -3.2986684097039E-02
(PID.TID 0000.0001) %MON dynstat_uvel_mean            =   2.1217401861468E-09
(PID.TID 0000.0001) %MON dynstat_uvel_sd              =   9.0403801815973E-04
(PID.TID 0000.0001) %MON dynstat_uvel_del2            =   1.3840473683357E-06
(PID.TID 0000.0001) %MON dynstat_vvel_max             =   2.2677645372465E-02
(PID.TID 0000.0001) %MON dynstat_vvel_min             =  -8.5598967162257E-03
(PID.TID 0000.0001) %MON dynstat_vvel_mean            =  -1.1408623393603E-07
(PID.TID 0000.0001) %MON dynstat_vvel_sd              =   4.3363392059251E-04
(PID.TID 0000.0001) %MON dynstat_vvel_del2            =   1.1521640533746E-06
(PID.TID 0000.0001) %MON dynstat_wvel_max             =   1.3318578736805E-03
(PID.TID 0000.0001) %MON dynstat_wvel_min             =  -1.6195131355239E-03
(PID.TID 0000.0001) %MON dynstat_wvel_mean            =   3.5466599879267E-10
(PID.TID 0000.0001) %MON dynstat_wvel_sd              =   2.1812379118300E-05
(PID.TID 0000.0001) %MON dynstat_wvel_del2            =   8.9831870999805E-08
(PID.TID 0000.0001) %MON dynstat_theta_max            =   1.2000000000000E+00
(PID.TID 0000.0001) %MON dynstat_theta_min            =  -1.0000000000000E+00
(PID.TID 0000.0001) %MON dynstat_theta_mean           =   5.6510898131149E-01
(PID.TID 0000.0001) %MON dynstat_theta_sd             =   8.4893019686775E-01
(PID.TID 0000.0001) %MON dynstat_theta_del2           =   3.2215090674122E-06
(PID.TID 0000.0001) %MON dynstat_salt_max             =   3.4700000000000E+01
(PID.TID 0000.0001) %MON dynstat_salt_min             =   3.4000000000000E+01
(PID.TID 0000.0001) %MON dynstat_salt_mean            =   3.4497957608910E+01
(PID.TID 0000.0001) %MON dynstat_salt_sd              =   2.7010916241969E-01
(PID.TID 0000.0001) %MON dynstat_salt_del2            =   1.2745565623637E-06
(PID.TID 0000.0001) %MON advcfl_uvel_max              =   3.2986684097039E-03
(PID.TID 0000.0001) %MON advcfl_vvel_max              =   2.2677645372465E-03
(PID.TID 0000.0001) %MON advcfl_wvel_max              =   8.0975656776196E-03
(PID.TID 0000.0001) %MON advcfl_W_hf_max              =   8.0975656776196E-03
(PID.TID 0000.0001) %MON pe_b_mean                    =  -6.8198190702032E-01
(PID.TID 0000.0001) %MON ke_max                       =   4.4082897230212E-04
(PID.TID 0000.0001) %MON ke_mean                      =   4.9497691514665E-07
(PID.TID 0000.0001) %MON ke_vol                       =   4.6183066230578E+12
(PID.TID 0000.0001) // =======================================================
(PID.TID 0000.0001) // End MONITOR dynamic field statistics
(PID.TID 0000.0001) // =======================================================
(PID.TID 0000.0001) // =======================================================
(PID.TID 0000.0001) // Begin OBCS MONITOR field statistics
(PID.TID 0000.0001) // =======================================================
(PID.TID 0000.0001) %MON obc_N_vVel_max               =  -1.4222156524908E-07
(PID.TID 0000.0001) %MON obc_N_vVel_min               =  -1.4222156524908E-07
(PID.TID 0000.0001) %MON obc_N_vVel_mean              =  -1.4222156524908E-07
(PID.TID 0000.0001) %MON obc_N_vVel_sd                =   1.9539925233403E-14
(PID.TID 0000.0001) %MON obc_N_vVel_Int               =  -9.3866233064392E+00
(PID.TID 0000.0001) // =======================================================
(PID.TID 0000.0001) // End OBCS MONITOR field statistics
(PID.TID 0000.0001) // =======================================================
 cg2d: Sum(rhs),rhsMax =   3.00859996473176E+00  4.53043600267084E+02
(PID.TID 0000.0001)      cg2d_init_res =   3.73236784229997E-06
(PID.TID 0000.0001)      cg2d_iters(min,last) =      -1      75
(PID.TID 0000.0001)      cg2d_last_res =   9.15006530844391E-12
(PID.TID 0000.0001) // =======================================================
(PID.TID 0000.0001) // Begin MONITOR dynamic field statistics
(PID.TID 0000.0001) // =======================================================
(PID.TID 0000.0001) %MON time_tsnumber                =                  1188
(PID.TID 0000.0001) %MON time_secondsf                =   1.1880000000000E+05
(PID.TID 0000.0001) %MON dynstat_eta_max              =   5.7987573735561E+00
(PID.TID 0000.0001) %MON dynstat_eta_min              =  -1.4170794657547E+01
(PID.TID 0000.0001) %MON dynstat_eta_mean             =  -2.5241239996028E+00
(PID.TID 0000.0001) %MON dynstat_eta_sd               =   4.9410914918360E+00
(PID.TID 0000.0001) %MON dynstat_eta_del2             =   1.9058752091064E-01
(PID.TID 0000.0001) %MON dynstat_uvel_max             =   7.1017264057511E-03
(PID.TID 0000.0001) %MON dynstat_uvel_min             =  -3.3059161957526E-02
(PID.TID 0000.0001) %MON dynstat_uvel_mean            =   2.0485897115974E-09
(PID.TID 0000.0001) %MON dynstat_uvel_sd              =   9.0622962887080E-04
(PID.TID 0000.0001) %MON dynstat_uvel_del2            =   1.3874149819886E-06
(PID.TID 0000.0001) %MON dynstat_vvel_max             =   2.2717885178069E-02
(PID.TID 0000.0001) %MON dynstat_vvel_min             =  -8.5789121860169E-03
(PID.TID 0000.0001) %MON dynstat_vvel_mean            =  -1.1330450223784E-07
(PID.TID 0000.0001) %MON dynstat_vvel_sd              =   4.3449773057366E-04
(PID.TID 0000.0001) %MON dynstat_vvel_del2            =   1.1545153942504E-06
(PID.TID 0000.0001) %MON dynstat_wvel_max             =   1.3347642822045E-03
(PID.TID 0000.0001) %MON dynstat_wvel_min             =  -1.6238767753922E-03
(PID.TID 0000.0001) %MON dynstat_wvel_mean            =   3.7026962475830E-10
(PID.TID 0000.0001) %MON dynstat_wvel_sd              =   2.1845147979208E-05
(PID.TID 0000.0001) %MON dynstat_wvel_del2            =   8.9919101025545E-08
(PID.TID 0000.0001) %MON dynstat_theta_max            =   1.2000000000000E+00
(PID.TID 0000.0001) %MON dynstat_theta_min            =  -1.0000000000000E+00
(PID.TID 0000.0001) %MON dynstat_theta_mean           =   5.6510824668698E-01
(PID.TID 0000.0001) %MON dynstat_theta_sd             =   8.4892987010081E-01
(PID.TID 0000.0001) %MON dynstat_theta_del2           =   3.2279783004781E-06
(PID.TID 0000.0001) %MON dynstat_salt_max             =   3.4700000000000E+01
(PID.TID 0000.0001) %MON dynstat_salt_min             =   3.4000000000000E+01
(PID.TID 0000.0001) %MON dynstat_salt_mean            =   3.4497957315504E+01
(PID.TID 0000.0001) %MON dynstat_salt_sd              =   2.7010903910480E-01
(PID.TID 0000.0001) %MON dynstat_salt_del2            =   1.2771212377302E-06
(PID.TID 0000.0001) %MON advcfl_uvel_max              =   3.3059161957526E-03
(PID.TID 0000.0001) %MON advcfl_vvel_max              =   2.2717885178069E-03
(PID.TID 0000.0001) %MON advcfl_wvel_max              =   8.1193838769608E-03
(PID.TID 0000.0001) %MON advcfl_W_hf_max              =   8.1193838769608E-03
(PID.TID 0000.0001) %MON pe_b_mean                    =  -6.8197990877347E-01
(PID.TID 0000.0001) %MON ke_max                       =   4.4314702346465E-04
(PID.TID 0000.0001) %MON ke_mean                      =   4.9729826508051E-07
(PID.TID 0000.0001) %MON ke_vol                       =   4.6183066632135E+12
(PID.TID 0000.0001) // =======================================================
(PID.TID 0000.0001) // End MONITOR dynamic field statistics
(PID.TID 0000.0001) // =======================================================
(PID.TID 0000.0001) // =======================================================
(PID.TID 0000.0001) // Begin OBCS MONITOR field statistics
(PID.TID 0000.0001) // =======================================================
(PID.TID 0000.0001) %MON obc_N_vVel_max               =  -1.4288741230052E-07
(PID.TID 0000.0001) %MON obc_N_vVel_min               =  -1.4288741230053E-07
(PID.TID 0000.0001) %MON obc_N_vVel_mean              =  -1.4288741230053E-07
(PID.TID 0000.0001) %MON obc_N_vVel_sd                =  -1.0444518385126E-27
(PID.TID 0000.0001) %MON obc_N_vVel_Int               =  -9.4305692118347E+00
(PID.TID 0000.0001) // =======================================================
(PID.TID 0000.0001) // End OBCS MONITOR field statistics
(PID.TID 0000.0001) // =======================================================
 cg2d: Sum(rhs),rhsMax =   3.00859199833025E+00  4.53043582483846E+02
(PID.TID 0000.0001)      cg2d_init_res =   3.73719726800034E-06
(PID.TID 0000.0001)      cg2d_iters(min,last) =      -1      75
(PID.TID 0000.0001)      cg2d_last_res =   9.16992666696447E-12
(PID.TID 0000.0001) // =======================================================
(PID.TID 0000.0001) // Begin MONITOR dynamic field statistics
(PID.TID 0000.0001) // =======================================================
(PID.TID 0000.0001) %MON time_tsnumber                =                  1189
(PID.TID 0000.0001) %MON time_secondsf                =   1.1890000000000E+05
(PID.TID 0000.0001) %MON dynstat_eta_max              =   5.7987603700024E+00
(PID.TID 0000.0001) %MON dynstat_eta_min              =  -1.4170780302472E+01
(PID.TID 0000.0001) %MON dynstat_eta_mean             =  -2.5241172169551E+00
(PID.TID 0000.0001) %MON dynstat_eta_sd               =   4.9410895405026E+00
(PID.TID 0000.0001) %MON dynstat_eta_del2             =   1.9058754065148E-01
(PID.TID 0000.0001) %MON dynstat_uvel_max             =   7.1189291939771E-03
(PID.TID 0000.0001) %MON dynstat_uvel_min             =  -3.3131699277048E-02
(PID.TID 0000.0001) %MON dynstat_uvel_mean            =   1.9760544456753E-09
(PID.TID 0000.0001) %MON dynstat_uvel_sd              =   9.0842572215578E-04
(PID.TID 0000.0001) %MON dynstat_uvel_del2            =   1.3907903540925E-06
(PID.TID 0000.0001) %MON dynstat_vvel_max             =   2.2758145260764E-02
(PID.TID 0000.0001) %MON dynstat_vvel_min             =  -8.5979500214830E-03
(PID.TID 0000.0001) %MON dynstat_vvel_mean            =  -1.1046992860853E-07
(PID.TID 0000.0001) %MON dynstat_vvel_sd              =   4.3536334330266E-04
(PID.TID 0000.0001) %MON dynstat_vvel_del2            =   1.1568701252392E-06
(PID.TID 0000.0001) %MON dynstat_wvel_max             =   1.3376741831519E-03
(PID.TID 0000.0001) %MON dynstat_wvel_min             =  -1.6282468406195E-03
(PID.TID 0000.0001) %MON dynstat_wvel_mean            =   3.8518651761148E-10
(PID.TID 0000.0001) %MON dynstat_wvel_sd              =   2.1878783926447E-05
(PID.TID 0000.0001) %MON dynstat_wvel_del2            =   9.0003868407123E-08
(PID.TID 0000.0001) %MON dynstat_theta_max            =   1.2000000000000E+00
(PID.TID 0000.0001) %MON dynstat_theta_min            =  -1.0000000000000E+00
(PID.TID 0000.0001) %MON dynstat_theta_mean           =   5.6510751078214E-01
(PID.TID 0000.0001) %MON dynstat_theta_sd             =   8.4892954269333E-01
(PID.TID 0000.0001) %MON dynstat_theta_del2           =   3.2344566551064E-06
(PID.TID 0000.0001) %MON dynstat_salt_max             =   3.4700000000000E+01
(PID.TID 0000.0001) %MON dynstat_salt_min             =   3.4000000000000E+01
(PID.TID 0000.0001) %MON dynstat_salt_mean            =   3.4497957021586E+01
(PID.TID 0000.0001) %MON dynstat_salt_sd              =   2.7010891554433E-01
(PID.TID 0000.0001) %MON dynstat_salt_del2            =   1.2796892541116E-06
(PID.TID 0000.0001) %MON advcfl_uvel_max              =   3.3131699277048E-03
(PID.TID 0000.0001) %MON advcfl_vvel_max              =   2.2758145260764E-03
(PID.TID 0000.0001) %MON advcfl_wvel_max              =   8.1412342030977E-03
(PID.TID 0000.0001) %MON advcfl_W_hf_max              =   8.1412342030977E-03
(PID.TID 0000.0001) %MON pe_b_mean                    =  -6.8197790765766E-01
(PID.TID 0000.0001) %MON ke_max                       =   4.4547533879340E-04
(PID.TID 0000.0001) %MON ke_mean                      =   4.9962985415365E-07
(PID.TID 0000.0001) %MON ke_vol                       =   4.6183067034424E+12
(PID.TID 0000.0001) // =======================================================
(PID.TID 0000.0001) // End MONITOR dynamic field statistics
(PID.TID 0000.0001) // =======================================================
(PID.TID 0000.0001) // =======================================================
(PID.TID 0000.0001) // Begin OBCS MONITOR field statistics
(PID.TID 0000.0001) // =======================================================
(PID.TID 0000.0001) %MON obc_N_vVel_max               =  -1.4154659953683E-07
(PID.TID 0000.0001) %MON obc_N_vVel_min               =  -1.4154659953683E-07
(PID.TID 0000.0001) %MON obc_N_vVel_mean              =  -1.4154659953683E-07
(PID.TID 0000.0001) %MON obc_N_vVel_sd                =   4.2073790788518E-14
(PID.TID 0000.0001) %MON obc_N_vVel_Int               =  -9.3420755694307E+00
(PID.TID 0000.0001) // =======================================================
(PID.TID 0000.0001) // End OBCS MONITOR field statistics
(PID.TID 0000.0001) // =======================================================
 cg2d: Sum(rhs),rhsMax =   3.00858401761099E+00  4.53043565432733E+02
(PID.TID 0000.0001)      cg2d_init_res =   3.74187321251846E-06
(PID.TID 0000.0001)      cg2d_iters(min,last) =      -1      75
(PID.TID 0000.0001)      cg2d_last_res =   9.18926013002516E-12
(PID.TID 0000.0001) // =======================================================
(PID.TID 0000.0001) // Begin MONITOR dynamic field statistics
(PID.TID 0000.0001) // =======================================================
(PID.TID 0000.0001) %MON time_tsnumber                =                  1190
(PID.TID 0000.0001) %MON time_secondsf                =   1.1900000000000E+05
(PID.TID 0000.0001) %MON dynstat_eta_max              =   5.7987633583919E+00
(PID.TID 0000.0001) %MON dynstat_eta_min              =  -1.4170765935118E+01
(PID.TID 0000.0001) %MON dynstat_eta_mean             =  -2.5241104263749E+00
(PID.TID 0000.0001) %MON dynstat_eta_sd               =   4.9410875888561E+00
(PID.TID 0000.0001) %MON dynstat_eta_del2             =   1.9058756043756E-01
(PID.TID 0000.0001) %MON dynstat_uvel_max             =   7.1361661790483E-03
(PID.TID 0000.0001) %MON dynstat_uvel_min             =  -3.3204295726961E-02
(PID.TID 0000.0001) %MON dynstat_uvel_mean            =   1.9053841890659E-09
(PID.TID 0000.0001) %MON dynstat_uvel_sd              =   9.1062630725546E-04
(PID.TID 0000.0001) %MON dynstat_uvel_del2            =   1.3941734998255E-06
(PID.TID 0000.0001) %MON dynstat_vvel_max             =   2.2798425587502E-02
(PID.TID 0000.0001) %MON dynstat_vvel_min             =  -8.6170101591401E-03
(PID.TID 0000.0001) %MON dynstat_vvel_mean            =  -1.0563195627600E-07
(PID.TID 0000.0001) %MON dynstat_vvel_sd              =   4.3623093699630E-04
(PID.TID 0000.0001) %MON dynstat_vvel_del2            =   1.1592295127948E-06
(PID.TID 0000.0001) %MON dynstat_wvel_max             =   1.3405873227055E-03
(PID.TID 0000.0001) %MON dynstat_wvel_min             =  -1.6326233058643E-03
(PID.TID 0000.0001) %MON dynstat_wvel_mean            =   3.9920955793194E-10
(PID.TID 0000.0001) %MON dynstat_wvel_sd              =   2.1914011888794E-05
(PID.TID 0000.0001) %MON dynstat_wvel_del2            =   9.0090828077095E-08
(PID.TID 0000.0001) %MON dynstat_theta_max            =   1.2000000000000E+00
(PID.TID 0000.0001) %MON dynstat_theta_min            =  -1.0000000000000E+00
(PID.TID 0000.0001) %MON dynstat_theta_mean           =   5.6510677359606E-01
(PID.TID 0000.0001) %MON dynstat_theta_sd             =   8.4892921464509E-01
(PID.TID 0000.0001) %MON dynstat_theta_del2           =   3.2409421569379E-06
(PID.TID 0000.0001) %MON dynstat_salt_max             =   3.4700000000000E+01
(PID.TID 0000.0001) %MON dynstat_salt_min             =   3.4000000000000E+01
(PID.TID 0000.0001) %MON dynstat_salt_mean            =   3.4497956727153E+01
(PID.TID 0000.0001) %MON dynstat_salt_sd              =   2.7010879173822E-01
(PID.TID 0000.0001) %MON dynstat_salt_del2            =   1.2822602501906E-06
(PID.TID 0000.0001) %MON advcfl_uvel_max              =   3.3204295726961E-03
(PID.TID 0000.0001) %MON advcfl_vvel_max              =   2.2798425587502E-03
(PID.TID 0000.0001) %MON advcfl_wvel_max              =   8.1631165293217E-03
(PID.TID 0000.0001) %MON advcfl_W_hf_max              =   8.1631165293217E-03
(PID.TID 0000.0001) %MON pe_b_mean                    =  -6.8197590409408E-01
(PID.TID 0000.0001) %MON ke_max                       =   4.4781395506397E-04
(PID.TID 0000.0001) %MON ke_mean                      =   5.0197180204501E-07
(PID.TID 0000.0001) %MON ke_vol                       =   4.6183067437313E+12
(PID.TID 0000.0001) // =======================================================
(PID.TID 0000.0001) // End MONITOR dynamic field statistics
(PID.TID 0000.0001) // =======================================================
(PID.TID 0000.0001) // =======================================================
(PID.TID 0000.0001) // Begin OBCS MONITOR field statistics
(PID.TID 0000.0001) // =======================================================
(PID.TID 0000.0001) %MON obc_N_vVel_max               =  -1.3822750193282E-07
(PID.TID 0000.0001) %MON obc_N_vVel_min               =  -1.3822750193282E-07
(PID.TID 0000.0001) %MON obc_N_vVel_mean              =  -1.3822750193282E-07
(PID.TID 0000.0001) %MON obc_N_vVel_sd                =   2.0408786293082E-14
(PID.TID 0000.0001) %MON obc_N_vVel_Int               =  -9.1230151275662E+00
(PID.TID 0000.0001) // =======================================================
(PID.TID 0000.0001) // End OBCS MONITOR field statistics
(PID.TID 0000.0001) // =======================================================
 cg2d: Sum(rhs),rhsMax =   3.00857602487999E+00  4.53043549146235E+02
(PID.TID 0000.0001)      cg2d_init_res =   3.74645089925713E-06
(PID.TID 0000.0001)      cg2d_iters(min,last) =      -1      75
(PID.TID 0000.0001)      cg2d_last_res =   9.20804297319903E-12
(PID.TID 0000.0001) // =======================================================
(PID.TID 0000.0001) // Begin MONITOR dynamic field statistics
(PID.TID 0000.0001) // =======================================================
(PID.TID 0000.0001) %MON time_tsnumber                =                  1191
(PID.TID 0000.0001) %MON time_secondsf                =   1.1910000000000E+05
(PID.TID 0000.0001) %MON dynstat_eta_max              =   5.7987663353688E+00
(PID.TID 0000.0001) %MON dynstat_eta_min              =  -1.4170751559240E+01
(PID.TID 0000.0001) %MON dynstat_eta_mean             =  -2.5241036299776E+00
(PID.TID 0000.0001) %MON dynstat_eta_sd               =   4.9410856375184E+00
(PID.TID 0000.0001) %MON dynstat_eta_del2             =   1.9058758027051E-01
(PID.TID 0000.0001) %MON dynstat_uvel_max             =   7.1534373634776E-03
(PID.TID 0000.0001) %MON dynstat_uvel_min             =  -3.3276950976812E-02
(PID.TID 0000.0001) %MON dynstat_uvel_mean            =   1.8377902743675E-09
(PID.TID 0000.0001) %MON dynstat_uvel_sd              =   9.1283139369983E-04
(PID.TID 0000.0001) %MON dynstat_uvel_del2            =   1.3975644333752E-06
(PID.TID 0000.0001) %MON dynstat_vvel_max             =   2.2838726036588E-02
(PID.TID 0000.0001) %MON dynstat_vvel_min             =  -8.6360925401938E-03
(PID.TID 0000.0001) %MON dynstat_vvel_mean            =  -9.8869640577232E-08
(PID.TID 0000.0001) %MON dynstat_vvel_sd              =   4.3710066405225E-04
(PID.TID 0000.0001) %MON dynstat_vvel_del2            =   1.1615947211684E-06
(PID.TID 0000.0001) %MON dynstat_wvel_max             =   1.3435036963458E-03
(PID.TID 0000.0001) %MON dynstat_wvel_min             =  -1.6370061452282E-03
(PID.TID 0000.0001) %MON dynstat_wvel_mean            =   4.1214270353402E-10
(PID.TID 0000.0001) %MON dynstat_wvel_sd              =   2.1951443196573E-05
(PID.TID 0000.0001) %MON dynstat_wvel_del2            =   9.0184327674193E-08
(PID.TID 0000.0001) %MON dynstat_theta_max            =   1.2000000000000E+00
(PID.TID 0000.0001) %MON dynstat_theta_min            =  -1.0000000000000E+00
(PID.TID 0000.0001) %MON dynstat_theta_mean           =   5.6510603512783E-01
(PID.TID 0000.0001) %MON dynstat_theta_sd             =   8.4892888595448E-01
(PID.TID 0000.0001) %MON dynstat_theta_del2           =   3.2474329933749E-06
(PID.TID 0000.0001) %MON dynstat_salt_max             =   3.4700000000000E+01
(PID.TID 0000.0001) %MON dynstat_salt_min             =   3.4000000000000E+01
(PID.TID 0000.0001) %MON dynstat_salt_mean            =   3.4497956432207E+01
(PID.TID 0000.0001) %MON dynstat_salt_sd              =   2.7010866768596E-01
(PID.TID 0000.0001) %MON dynstat_salt_del2            =   1.2848337490734E-06
(PID.TID 0000.0001) %MON advcfl_uvel_max              =   3.3276950976812E-03
(PID.TID 0000.0001) %MON advcfl_vvel_max              =   2.2838726036588E-03
(PID.TID 0000.0001) %MON advcfl_wvel_max              =   8.1850307261409E-03
(PID.TID 0000.0001) %MON advcfl_W_hf_max              =   8.1850307261409E-03
(PID.TID 0000.0001) %MON pe_b_mean                    =  -6.8197389848511E-01
(PID.TID 0000.0001) %MON ke_max                       =   4.5016290914443E-04
(PID.TID 0000.0001) %MON ke_mean                      =   5.0432421819032E-07
(PID.TID 0000.0001) %MON ke_vol                       =   4.6183067840673E+12
(PID.TID 0000.0001) // =======================================================
(PID.TID 0000.0001) // End MONITOR dynamic field statistics
(PID.TID 0000.0001) // =======================================================
(PID.TID 0000.0001) // =======================================================
(PID.TID 0000.0001) // Begin OBCS MONITOR field statistics
(PID.TID 0000.0001) // =======================================================
(PID.TID 0000.0001) %MON obc_N_vVel_max               =  -1.3298770422970E-07
(PID.TID 0000.0001) %MON obc_N_vVel_min               =  -1.3298770422970E-07
(PID.TID 0000.0001) %MON obc_N_vVel_mean              =  -1.3298770422970E-07
(PID.TID 0000.0001) %MON obc_N_vVel_sd                =   2.6881156767938E-14
(PID.TID 0000.0001) %MON obc_N_vVel_Int               =  -8.7771884791601E+00
(PID.TID 0000.0001) // =======================================================
(PID.TID 0000.0001) // End OBCS MONITOR field statistics
(PID.TID 0000.0001) // =======================================================
 cg2d: Sum(rhs),rhsMax =   3.00856802240315E+00  4.53043533645754E+02
(PID.TID 0000.0001)      cg2d_init_res =   3.75098950289354E-06
(PID.TID 0000.0001)      cg2d_iters(min,last) =      -1      75
(PID.TID 0000.0001)      cg2d_last_res =   9.22629850212756E-12
(PID.TID 0000.0001) // =======================================================
(PID.TID 0000.0001) // Begin MONITOR dynamic field statistics
(PID.TID 0000.0001) // =======================================================
(PID.TID 0000.0001) %MON time_tsnumber                =                  1192
(PID.TID 0000.0001) %MON time_secondsf                =   1.1920000000000E+05
(PID.TID 0000.0001) %MON dynstat_eta_max              =   5.7987692977929E+00
(PID.TID 0000.0001) %MON dynstat_eta_min              =  -1.4170737178356E+01
(PID.TID 0000.0001) %MON dynstat_eta_mean             =  -2.5240968297836E+00
(PID.TID 0000.0001) %MON dynstat_eta_sd               =   4.9410836870551E+00
(PID.TID 0000.0001) %MON dynstat_eta_del2             =   1.9058760015178E-01
(PID.TID 0000.0001) %MON dynstat_uvel_max             =   7.1707427495786E-03
(PID.TID 0000.0001) %MON dynstat_uvel_min             =  -3.3349664694750E-02
(PID.TID 0000.0001) %MON dynstat_uvel_mean            =   1.7744520044615E-09
(PID.TID 0000.0001) %MON dynstat_uvel_sd              =   9.1504099107241E-04
(PID.TID 0000.0001) %MON dynstat_uvel_del2            =   1.4009631693783E-06
(PID.TID 0000.0001) %MON dynstat_vvel_max             =   2.2879046494582E-02
(PID.TID 0000.0001) %MON dynstat_vvel_min             =  -8.6551971101931E-03
(PID.TID 0000.0001) %MON dynstat_vvel_mean            =  -9.0290357362615E-08
(PID.TID 0000.0001) %MON dynstat_vvel_sd              =   4.3797264443289E-04
(PID.TID 0000.0001) %MON dynstat_vvel_del2            =   1.1639667531206E-06
(PID.TID 0000.0001) %MON dynstat_wvel_max             =   1.3464233053235E-03
(PID.TID 0000.0001) %MON dynstat_wvel_min             =  -1.6413953322590E-03
(PID.TID 0000.0001) %MON dynstat_wvel_mean            =   4.2380774412971E-10
(PID.TID 0000.0001) %MON dynstat_wvel_sd              =   2.1991542805519E-05
(PID.TID 0000.0001) %MON dynstat_wvel_del2            =   9.0288187579134E-08
(PID.TID 0000.0001) %MON dynstat_theta_max            =   1.2000000000000E+00
(PID.TID 0000.0001) %MON dynstat_theta_min            =  -1.0000000000000E+00
(PID.TID 0000.0001) %MON dynstat_theta_mean           =   5.6510529537651E-01
(PID.TID 0000.0001) %MON dynstat_theta_sd             =   8.4892855661867E-01
(PID.TID 0000.0001) %MON dynstat_theta_del2           =   3.2539276035099E-06
(PID.TID 0000.0001) %MON dynstat_salt_max             =   3.4700000000000E+01
(PID.TID 0000.0001) %MON dynstat_salt_min             =   3.4000000000000E+01
(PID.TID 0000.0001) %MON dynstat_salt_mean            =   3.4497956136746E+01
(PID.TID 0000.0001) %MON dynstat_salt_sd              =   2.7010854338672E-01
(PID.TID 0000.0001) %MON dynstat_salt_del2            =   1.2874093411318E-06
(PID.TID 0000.0001) %MON advcfl_uvel_max              =   3.3349664694750E-03
(PID.TID 0000.0001) %MON advcfl_vvel_max              =   2.2879046494582E-03
(PID.TID 0000.0001) %MON advcfl_wvel_max              =   8.2069766612952E-03
(PID.TID 0000.0001) %MON advcfl_W_hf_max              =   8.2069766612952E-03
(PID.TID 0000.0001) %MON pe_b_mean                    =  -6.8197189120838E-01
(PID.TID 0000.0001) %MON ke_max                       =   4.5252223800448E-04
(PID.TID 0000.0001) %MON ke_mean                      =   5.0668719856496E-07
(PID.TID 0000.0001) %MON ke_vol                       =   4.6183068244379E+12
(PID.TID 0000.0001) // =======================================================
(PID.TID 0000.0001) // End MONITOR dynamic field statistics
(PID.TID 0000.0001) // =======================================================
(PID.TID 0000.0001) // =======================================================
(PID.TID 0000.0001) // Begin OBCS MONITOR field statistics
(PID.TID 0000.0001) // =======================================================
(PID.TID 0000.0001) %MON obc_N_vVel_max               =  -1.2591306786078E-07
(PID.TID 0000.0001) %MON obc_N_vVel_min               =  -1.2591306786078E-07
(PID.TID 0000.0001) %MON obc_N_vVel_mean              =  -1.2591306786078E-07
(PID.TID 0000.0001) %MON obc_N_vVel_sd                =  -7.6046191263306E-28
(PID.TID 0000.0001) %MON obc_N_vVel_Int               =  -8.3102624788116E+00
(PID.TID 0000.0001) // =======================================================
(PID.TID 0000.0001) // End OBCS MONITOR field statistics
(PID.TID 0000.0001) // =======================================================
 cg2d: Sum(rhs),rhsMax =   3.00856001237427E+00  4.53043518941016E+02
(PID.TID 0000.0001)      cg2d_init_res =   3.75554159883896E-06
(PID.TID 0000.0001)      cg2d_iters(min,last) =      -1      75
(PID.TID 0000.0001)      cg2d_last_res =   9.24404570127523E-12
(PID.TID 0000.0001) // =======================================================
(PID.TID 0000.0001) // Begin MONITOR dynamic field statistics
(PID.TID 0000.0001) // =======================================================
(PID.TID 0000.0001) %MON time_tsnumber                =                  1193
(PID.TID 0000.0001) %MON time_secondsf                =   1.1930000000000E+05
(PID.TID 0000.0001) %MON dynstat_eta_max              =   5.7987722427547E+00
(PID.TID 0000.0001) %MON dynstat_eta_min              =  -1.4170722795707E+01
(PID.TID 0000.0001) %MON dynstat_eta_mean             =  -2.5240900276875E+00
(PID.TID 0000.0001) %MON dynstat_eta_sd               =   4.9410817379655E+00
(PID.TID 0000.0001) %MON dynstat_eta_del2             =   1.9058762008260E-01
(PID.TID 0000.0001) %MON dynstat_uvel_max             =   7.1880823392361E-03
(PID.TID 0000.0001) %MON dynstat_uvel_min             =  -3.3422436547863E-02
(PID.TID 0000.0001) %MON dynstat_uvel_mean            =   1.7164797401461E-09
(PID.TID 0000.0001) %MON dynstat_uvel_sd              =   9.1725510902407E-04
(PID.TID 0000.0001) %MON dynstat_uvel_del2            =   1.4043697230070E-06
(PID.TID 0000.0001) %MON dynstat_vvel_max             =   2.2919386843512E-02
(PID.TID 0000.0001) %MON dynstat_vvel_min             =  -8.6743238186848E-03
(PID.TID 0000.0001) %MON dynstat_vvel_mean            =  -8.0028161584085E-08
(PID.TID 0000.0001) %MON dynstat_vvel_sd              =   4.3884695984571E-04
(PID.TID 0000.0001) %MON dynstat_vvel_del2            =   1.1663464001231E-06
(PID.TID 0000.0001) %MON dynstat_wvel_max             =   1.3493461489465E-03
(PID.TID 0000.0001) %MON dynstat_wvel_min             =  -1.6457908399022E-03
(PID.TID 0000.0001) %MON dynstat_wvel_mean            =   4.3404547001439E-10
(PID.TID 0000.0001) %MON dynstat_wvel_sd              =   2.2034606513675E-05
(PID.TID 0000.0001) %MON dynstat_wvel_del2            =   9.0405519612289E-08
(PID.TID 0000.0001) %MON dynstat_theta_max            =   1.2000000000000E+00
(PID.TID 0000.0001) %MON dynstat_theta_min            =  -1.0000000000000E+00
(PID.TID 0000.0001) %MON dynstat_theta_mean           =   5.6510455434107E-01
(PID.TID 0000.0001) %MON dynstat_theta_sd             =   8.4892822663465E-01
(PID.TID 0000.0001) %MON dynstat_theta_del2           =   3.2604247549306E-06
(PID.TID 0000.0001) %MON dynstat_salt_max             =   3.4700000000000E+01
(PID.TID 0000.0001) %MON dynstat_salt_min             =   3.4000000000000E+01
(PID.TID 0000.0001) %MON dynstat_salt_mean            =   3.4497955840771E+01
(PID.TID 0000.0001) %MON dynstat_salt_sd              =   2.7010841883960E-01
(PID.TID 0000.0001) %MON dynstat_salt_del2            =   1.2899867036185E-06
(PID.TID 0000.0001) %MON advcfl_uvel_max              =   3.3422436547863E-03
(PID.TID 0000.0001) %MON advcfl_vvel_max              =   2.2919386843512E-03
(PID.TID 0000.0001) %MON advcfl_wvel_max              =   8.2289541995109E-03
(PID.TID 0000.0001) %MON advcfl_W_hf_max              =   8.2289541995109E-03
(PID.TID 0000.0001) %MON pe_b_mean                    =  -6.8196988261108E-01
(PID.TID 0000.0001) %MON ke_max                       =   4.5489197872184E-04
(PID.TID 0000.0001) %MON ke_mean                      =   5.0906082300213E-07
(PID.TID 0000.0001) %MON ke_vol                       =   4.6183068648311E+12
(PID.TID 0000.0001) // =======================================================
(PID.TID 0000.0001) // End MONITOR dynamic field statistics
(PID.TID 0000.0001) // =======================================================
(PID.TID 0000.0001) // =======================================================
(PID.TID 0000.0001) // Begin OBCS MONITOR field statistics
(PID.TID 0000.0001) // =======================================================
(PID.TID 0000.0001) %MON obc_N_vVel_max               =  -1.1711641699618E-07
(PID.TID 0000.0001) %MON obc_N_vVel_min               =  -1.1711641699618E-07
(PID.TID 0000.0001) %MON obc_N_vVel_mean              =  -1.1711641699618E-07
(PID.TID 0000.0001) %MON obc_N_vVel_sd                =  -4.2756261062979E-28
(PID.TID 0000.0001) %MON obc_N_vVel_Int               =  -7.7296835217481E+00
(PID.TID 0000.0001) // =======================================================
(PID.TID 0000.0001) // End OBCS MONITOR field statistics
(PID.TID 0000.0001) // =======================================================
 cg2d: Sum(rhs),rhsMax =   3.00855199687982E+00  4.53043505030352E+02
(PID.TID 0000.0001)      cg2d_init_res =   3.76015352868915E-06
(PID.TID 0000.0001)      cg2d_iters(min,last) =      -1      75
(PID.TID 0000.0001)      cg2d_last_res =   9.26131560138200E-12
(PID.TID 0000.0001) // =======================================================
(PID.TID 0000.0001) // Begin MONITOR dynamic field statistics
(PID.TID 0000.0001) // =======================================================
(PID.TID 0000.0001) %MON time_tsnumber                =                  1194
(PID.TID 0000.0001) %MON time_secondsf                =   1.1940000000000E+05
(PID.TID 0000.0001) %MON dynstat_eta_max              =   5.7987751676252E+00
(PID.TID 0000.0001) %MON dynstat_eta_min              =  -1.4170708414211E+01
(PID.TID 0000.0001) %MON dynstat_eta_mean             =  -2.5240832254306E+00
(PID.TID 0000.0001) %MON dynstat_eta_sd               =   4.9410797906767E+00
(PID.TID 0000.0001) %MON dynstat_eta_del2             =   1.9058764006400E-01
(PID.TID 0000.0001) %MON dynstat_uvel_max             =   7.2054561340247E-03
(PID.TID 0000.0001) %MON dynstat_uvel_min             =  -3.3495266202165E-02
(PID.TID 0000.0001) %MON dynstat_uvel_mean            =   1.6649005326024E-09
(PID.TID 0000.0001) %MON dynstat_uvel_sd              =   9.1947375727991E-04
(PID.TID 0000.0001) %MON dynstat_uvel_del2            =   1.4077841100261E-06
(PID.TID 0000.0001) %MON dynstat_vvel_max             =   2.2959746960910E-02
(PID.TID 0000.0001) %MON dynstat_vvel_min             =  -8.6934726188612E-03
(PID.TID 0000.0001) %MON dynstat_vvel_mean            =  -6.8241732660949E-08
(PID.TID 0000.0001) %MON dynstat_vvel_sd              =   4.3972365038283E-04
(PID.TID 0000.0001) %MON dynstat_vvel_del2            =   1.1687342064003E-06
(PID.TID 0000.0001) %MON dynstat_wvel_max             =   1.3522722264788E-03
(PID.TID 0000.0001) %MON dynstat_wvel_min             =  -1.6501926405827E-03
(PID.TID 0000.0001) %MON dynstat_wvel_mean            =   4.4271819040459E-10
(PID.TID 0000.0001) %MON dynstat_wvel_sd              =   2.2080748885008E-05
(PID.TID 0000.0001) %MON dynstat_wvel_del2            =   9.0538589161697E-08
(PID.TID 0000.0001) %MON dynstat_theta_max            =   1.2000000000000E+00
(PID.TID 0000.0001) %MON dynstat_theta_min            =  -1.0000000000000E+00
(PID.TID 0000.0001) %MON dynstat_theta_mean           =   5.6510381202040E-01
(PID.TID 0000.0001) %MON dynstat_theta_sd             =   8.4892789599835E-01
(PID.TID 0000.0001) %MON dynstat_theta_del2           =   3.2669235920203E-06
(PID.TID 0000.0001) %MON dynstat_salt_max             =   3.4700000000000E+01
(PID.TID 0000.0001) %MON dynstat_salt_min             =   3.4000000000000E+01
(PID.TID 0000.0001) %MON dynstat_salt_mean            =   3.4497955544280E+01
(PID.TID 0000.0001) %MON dynstat_salt_sd              =   2.7010829404317E-01
(PID.TID 0000.0001) %MON dynstat_salt_del2            =   1.2925656127334E-06
(PID.TID 0000.0001) %MON advcfl_uvel_max              =   3.3495266202165E-03
(PID.TID 0000.0001) %MON advcfl_vvel_max              =   2.2959746960910E-03
(PID.TID 0000.0001) %MON advcfl_wvel_max              =   8.2509632029133E-03
(PID.TID 0000.0001) %MON advcfl_W_hf_max              =   8.2509632029133E-03
(PID.TID 0000.0001) %MON pe_b_mean                    =  -6.8196787300483E-01
(PID.TID 0000.0001) %MON ke_max                       =   4.5727216848430E-04
(PID.TID 0000.0001) %MON ke_mean                      =   5.1144515355401E-07
(PID.TID 0000.0001) %MON ke_vol                       =   4.6183069052355E+12
(PID.TID 0000.0001) // =======================================================
(PID.TID 0000.0001) // End MONITOR dynamic field statistics
(PID.TID 0000.0001) // =======================================================
(PID.TID 0000.0001) // =======================================================
(PID.TID 0000.0001) // Begin OBCS MONITOR field statistics
(PID.TID 0000.0001) // =======================================================
(PID.TID 0000.0001) %MON obc_N_vVel_max               =  -1.0673580825711E-07
(PID.TID 0000.0001) %MON obc_N_vVel_min               =  -1.0673580825711E-07
(PID.TID 0000.0001) %MON obc_N_vVel_mean              =  -1.0673580825711E-07
(PID.TID 0000.0001) %MON obc_N_vVel_sd                =  -8.3619255953427E-29
(PID.TID 0000.0001) %MON obc_N_vVel_Int               =  -7.0445633449692E+00
(PID.TID 0000.0001) // =======================================================
(PID.TID 0000.0001) // End OBCS MONITOR field statistics
(PID.TID 0000.0001) // =======================================================
 cg2d: Sum(rhs),rhsMax =   3.00854397786981E+00  4.53043491900561E+02
(PID.TID 0000.0001)      cg2d_init_res =   3.76486363814252E-06
(PID.TID 0000.0001)      cg2d_iters(min,last) =      -1      75
(PID.TID 0000.0001)      cg2d_last_res =   9.27814593199968E-12
(PID.TID 0000.0001) // =======================================================
(PID.TID 0000.0001) // Begin MONITOR dynamic field statistics
(PID.TID 0000.0001) // =======================================================
(PID.TID 0000.0001) %MON time_tsnumber                =                  1195
(PID.TID 0000.0001) %MON time_secondsf                =   1.1950000000000E+05
(PID.TID 0000.0001) %MON dynstat_eta_max              =   5.7987780701088E+00
(PID.TID 0000.0001) %MON dynstat_eta_min              =  -1.4170694036411E+01
(PID.TID 0000.0001) %MON dynstat_eta_mean             =  -2.5240764245751E+00
(PID.TID 0000.0001) %MON dynstat_eta_sd               =   4.9410778455361E+00
(PID.TID 0000.0001) %MON dynstat_eta_del2             =   1.9058766009678E-01
(PID.TID 0000.0001) %MON dynstat_uvel_max             =   7.2228641350840E-03
(PID.TID 0000.0001) %MON dynstat_uvel_min             =  -3.3568153322785E-02
(PID.TID 0000.0001) %MON dynstat_uvel_mean            =   1.6206421004019E-09
(PID.TID 0000.0001) %MON dynstat_uvel_sd              =   9.2169694564144E-04
(PID.TID 0000.0001) %MON dynstat_uvel_del2            =   1.4112063468056E-06
(PID.TID 0000.0001) %MON dynstat_vvel_max             =   2.3000126721152E-02
(PID.TID 0000.0001) %MON dynstat_vvel_min             =  -8.7126434671361E-03
(PID.TID 0000.0001) %MON dynstat_vvel_mean            =  -5.5111936470154E-08
(PID.TID 0000.0001) %MON dynstat_vvel_sd              =   4.4060271374189E-04
(PID.TID 0000.0001) %MON dynstat_vvel_del2            =   1.1711304480275E-06
(PID.TID 0000.0001) %MON dynstat_wvel_max             =   1.3552015372623E-03
(PID.TID 0000.0001) %MON dynstat_wvel_min             =  -1.6546007062378E-03
(PID.TID 0000.0001) %MON dynstat_wvel_mean            =   4.4971140896853E-10
(PID.TID 0000.0001) %MON dynstat_wvel_sd              =   2.2129902277678E-05
(PID.TID 0000.0001) %MON dynstat_wvel_del2            =   9.0688726160928E-08
(PID.TID 0000.0001) %MON dynstat_theta_max            =   1.2000000000000E+00
(PID.TID 0000.0001) %MON dynstat_theta_min            =  -1.0000000000000E+00
(PID.TID 0000.0001) %MON dynstat_theta_mean           =   5.6510306841333E-01
(PID.TID 0000.0001) %MON dynstat_theta_sd             =   8.4892756470557E-01
(PID.TID 0000.0001) %MON dynstat_theta_del2           =   3.2734236693871E-06
(PID.TID 0000.0001) %MON dynstat_salt_max             =   3.4700000000000E+01
(PID.TID 0000.0001) %MON dynstat_salt_min             =   3.4000000000000E+01
(PID.TID 0000.0001) %MON dynstat_salt_mean            =   3.4497955247273E+01
(PID.TID 0000.0001) %MON dynstat_salt_sd              =   2.7010816899598E-01
(PID.TID 0000.0001) %MON dynstat_salt_del2            =   1.2951459523888E-06
(PID.TID 0000.0001) %MON advcfl_uvel_max              =   3.3568153322785E-03
(PID.TID 0000.0001) %MON advcfl_vvel_max              =   2.3000126721152E-03
(PID.TID 0000.0001) %MON advcfl_wvel_max              =   8.2730035311892E-03
(PID.TID 0000.0001) %MON advcfl_W_hf_max              =   8.2730035311892E-03
(PID.TID 0000.0001) %MON pe_b_mean                    =  -6.8196586266114E-01
(PID.TID 0000.0001) %MON ke_max                       =   4.5966284459341E-04
(PID.TID 0000.0001) %MON ke_mean                      =   5.1384023396692E-07
(PID.TID 0000.0001) %MON ke_vol                       =   4.6183069456409E+12
(PID.TID 0000.0001) // =======================================================
(PID.TID 0000.0001) // End MONITOR dynamic field statistics
(PID.TID 0000.0001) // =======================================================
(PID.TID 0000.0001) // =======================================================
(PID.TID 0000.0001) // Begin OBCS MONITOR field statistics
(PID.TID 0000.0001) // =======================================================
(PID.TID 0000.0001) %MON obc_N_vVel_max               =  -9.4932362840528E-08
(PID.TID 0000.0001) %MON obc_N_vVel_min               =  -9.4932362840529E-08
(PID.TID 0000.0001) %MON obc_N_vVel_mean              =  -9.4932362840528E-08
(PID.TID 0000.0001) %MON obc_N_vVel_sd                =   1.4321446692198E-14
(PID.TID 0000.0001) %MON obc_N_vVel_Int               =  -6.2655359474748E+00
(PID.TID 0000.0001) // =======================================================
(PID.TID 0000.0001) // End OBCS MONITOR field statistics
(PID.TID 0000.0001) // =======================================================
 cg2d: Sum(rhs),rhsMax =   3.00853595712659E+00  4.53043479527256E+02
(PID.TID 0000.0001)      cg2d_init_res =   3.76970177222790E-06
(PID.TID 0000.0001)      cg2d_iters(min,last) =      -1      75
(PID.TID 0000.0001)      cg2d_last_res =   9.29459098971570E-12
(PID.TID 0000.0001) // =======================================================
(PID.TID 0000.0001) // Begin MONITOR dynamic field statistics
(PID.TID 0000.0001) // =======================================================
(PID.TID 0000.0001) %MON time_tsnumber                =                  1196
(PID.TID 0000.0001) %MON time_secondsf                =   1.1960000000000E+05
(PID.TID 0000.0001) %MON dynstat_eta_max              =   5.7987809482616E+00
(PID.TID 0000.0001) %MON dynstat_eta_min              =  -1.4170679664440E+01
(PID.TID 0000.0001) %MON dynstat_eta_mean             =  -2.5240696264805E+00
(PID.TID 0000.0001) %MON dynstat_eta_sd               =   4.9410759028071E+00
(PID.TID 0000.0001) %MON dynstat_eta_del2             =   1.9058768018150E-01
(PID.TID 0000.0001) %MON dynstat_uvel_max             =   7.2403063430748E-03
(PID.TID 0000.0001) %MON dynstat_uvel_min             =  -3.3641097574356E-02
(PID.TID 0000.0001) %MON dynstat_uvel_mean            =   1.5845200024824E-09
(PID.TID 0000.0001) %MON dynstat_uvel_sd              =   9.2392468398605E-04
(PID.TID 0000.0001) %MON dynstat_uvel_del2            =   1.4146364503234E-06
(PID.TID 0000.0001) %MON dynstat_vvel_max             =   2.3040525996057E-02
(PID.TID 0000.0001) %MON dynstat_vvel_min             =  -8.7318363226294E-03
(PID.TID 0000.0001) %MON dynstat_vvel_mean            =  -4.0839054300720E-08
(PID.TID 0000.0001) %MON dynstat_vvel_sd              =   4.4148410699375E-04
(PID.TID 0000.0001) %MON dynstat_vvel_del2            =   1.1735351275118E-06
(PID.TID 0000.0001) %MON dynstat_wvel_max             =   1.3581340806967E-03
(PID.TID 0000.0001) %MON dynstat_wvel_min             =  -1.6590150082629E-03
(PID.TID 0000.0001) %MON dynstat_wvel_mean            =   4.5493584741286E-10
(PID.TID 0000.0001) %MON dynstat_wvel_sd              =   2.2181826730812E-05
(PID.TID 0000.0001) %MON dynstat_wvel_del2            =   9.0856288128870E-08
(PID.TID 0000.0001) %MON dynstat_theta_max            =   1.2000000000000E+00
(PID.TID 0000.0001) %MON dynstat_theta_min            =  -1.0000000000000E+00
(PID.TID 0000.0001) %MON dynstat_theta_mean           =   5.6510232351845E-01
(PID.TID 0000.0001) %MON dynstat_theta_sd             =   8.4892723275132E-01
(PID.TID 0000.0001) %MON dynstat_theta_del2           =   3.2799249753074E-06
(PID.TID 0000.0001) %MON dynstat_salt_max             =   3.4700000000000E+01
(PID.TID 0000.0001) %MON dynstat_salt_min             =   3.4000000000000E+01
(PID.TID 0000.0001) %MON dynstat_salt_mean            =   3.4497954949749E+01
(PID.TID 0000.0001) %MON dynstat_salt_sd              =   2.7010804369661E-01
(PID.TID 0000.0001) %MON dynstat_salt_del2            =   1.2977277200192E-06
(PID.TID 0000.0001) %MON advcfl_uvel_max              =   3.3641097574356E-03
(PID.TID 0000.0001) %MON advcfl_vvel_max              =   2.3040525996057E-03
(PID.TID 0000.0001) %MON advcfl_wvel_max              =   8.2950750413147E-03
(PID.TID 0000.0001) %MON advcfl_W_hf_max              =   8.2950750413147E-03
(PID.TID 0000.0001) %MON pe_b_mean                    =  -6.8196385180716E-01
(PID.TID 0000.0001) %MON ke_max                       =   4.6206404447283E-04
(PID.TID 0000.0001) %MON ke_mean                      =   5.1624609027274E-07
(PID.TID 0000.0001) %MON ke_vol                       =   4.6183069860380E+12
(PID.TID 0000.0001) // =======================================================
(PID.TID 0000.0001) // End MONITOR dynamic field statistics
(PID.TID 0000.0001) // =======================================================
(PID.TID 0000.0001) // =======================================================
(PID.TID 0000.0001) // Begin OBCS MONITOR field statistics
(PID.TID 0000.0001) // =======================================================
(PID.TID 0000.0001) %MON obc_N_vVel_max               =  -8.1887823487925E-08
(PID.TID 0000.0001) %MON obc_N_vVel_min               =  -8.1887823487925E-08
(PID.TID 0000.0001) %MON obc_N_vVel_mean              =  -8.1887823487925E-08
(PID.TID 0000.0001) %MON obc_N_vVel_sd                =  -1.4988357199199E-28
(PID.TID 0000.0001) %MON obc_N_vVel_Int               =  -5.4045963502031E+00
(PID.TID 0000.0001) // =======================================================
(PID.TID 0000.0001) // End OBCS MONITOR field statistics
(PID.TID 0000.0001) // =======================================================
 cg2d: Sum(rhs),rhsMax =   3.00852793623852E+00  4.53043467875545E+02
(PID.TID 0000.0001)      cg2d_init_res =   3.77468914148966E-06
(PID.TID 0000.0001)      cg2d_iters(min,last) =      -1      75
(PID.TID 0000.0001)      cg2d_last_res =   9.31070820244044E-12
(PID.TID 0000.0001) // =======================================================
(PID.TID 0000.0001) // Begin MONITOR dynamic field statistics
(PID.TID 0000.0001) // =======================================================
(PID.TID 0000.0001) %MON time_tsnumber                =                  1197
(PID.TID 0000.0001) %MON time_secondsf                =   1.1970000000000E+05
(PID.TID 0000.0001) %MON dynstat_eta_max              =   5.7987838005203E+00
(PID.TID 0000.0001) %MON dynstat_eta_min              =  -1.4170665299994E+01
(PID.TID 0000.0001) %MON dynstat_eta_mean             =  -2.5240628322851E+00
(PID.TID 0000.0001) %MON dynstat_eta_sd               =   4.9410739626646E+00
(PID.TID 0000.0001) %MON dynstat_eta_del2             =   1.9058770031845E-01
(PID.TID 0000.0001) %MON dynstat_uvel_max             =   7.2577827580984E-03
(PID.TID 0000.0001) %MON dynstat_uvel_min             =  -3.3714098620989E-02
(PID.TID 0000.0001) %MON dynstat_uvel_mean            =   1.5572238311367E-09
(PID.TID 0000.0001) %MON dynstat_uvel_sd              =   9.2615698226248E-04
(PID.TID 0000.0001) %MON dynstat_uvel_del2            =   1.4180744381185E-06
(PID.TID 0000.0001) %MON dynstat_vvel_max             =   2.3080944655322E-02
(PID.TID 0000.0001) %MON dynstat_vvel_min             =  -8.7510511467073E-03
(PID.TID 0000.0001) %MON dynstat_vvel_mean            =  -2.5639716292043E-08
(PID.TID 0000.0001) %MON dynstat_vvel_sd              =   4.4236775072114E-04
(PID.TID 0000.0001) %MON dynstat_vvel_del2            =   1.1759479835048E-06
(PID.TID 0000.0001) %MON dynstat_wvel_max             =   1.3610698562033E-03
(PID.TID 0000.0001) %MON dynstat_wvel_min             =  -1.6634355176124E-03
(PID.TID 0000.0001) %MON dynstat_wvel_mean            =   4.5832873682239E-10
(PID.TID 0000.0001) %MON dynstat_wvel_sd              =   2.2236129793940E-05
(PID.TID 0000.0001) %MON dynstat_wvel_del2            =   9.1040675724045E-08
(PID.TID 0000.0001) %MON dynstat_theta_max            =   1.2000000000000E+00
(PID.TID 0000.0001) %MON dynstat_theta_min            =  -1.0000000000000E+00
(PID.TID 0000.0001) %MON dynstat_theta_mean           =   5.6510157733430E-01
(PID.TID 0000.0001) %MON dynstat_theta_sd             =   8.4892690013292E-01
(PID.TID 0000.0001) %MON dynstat_theta_del2           =   3.2864278781372E-06
(PID.TID 0000.0001) %MON dynstat_salt_max             =   3.4700000000000E+01
(PID.TID 0000.0001) %MON dynstat_salt_min             =   3.4000000000000E+01
(PID.TID 0000.0001) %MON dynstat_salt_mean            =   3.4497954651709E+01
(PID.TID 0000.0001) %MON dynstat_salt_sd              =   2.7010791814397E-01
(PID.TID 0000.0001) %MON dynstat_salt_del2            =   1.3003110126377E-06
(PID.TID 0000.0001) %MON advcfl_uvel_max              =   3.3714098620989E-03
(PID.TID 0000.0001) %MON advcfl_vvel_max              =   2.3080944655322E-03
(PID.TID 0000.0001) %MON advcfl_wvel_max              =   8.3171775880619E-03
(PID.TID 0000.0001) %MON advcfl_W_hf_max              =   8.3171775880619E-03
(PID.TID 0000.0001) %MON pe_b_mean                    =  -6.8196184062263E-01
(PID.TID 0000.0001) %MON ke_max                       =   4.6447580566743E-04
(PID.TID 0000.0001) %MON ke_mean                      =   5.1866273243329E-07
(PID.TID 0000.0001) %MON ke_vol                       =   4.6183070264187E+12
(PID.TID 0000.0001) // =======================================================
(PID.TID 0000.0001) // End MONITOR dynamic field statistics
(PID.TID 0000.0001) // =======================================================
(PID.TID 0000.0001) // =======================================================
(PID.TID 0000.0001) // Begin OBCS MONITOR field statistics
(PID.TID 0000.0001) // =======================================================
(PID.TID 0000.0001) %MON obc_N_vVel_max               =  -6.7801759578266E-08
(PID.TID 0000.0001) %MON obc_N_vVel_min               =  -6.7801759578267E-08
(PID.TID 0000.0001) %MON obc_N_vVel_mean              =  -6.7801759578266E-08
(PID.TID 0000.0001) %MON obc_N_vVel_sd                =   7.3777640556099E-15
(PID.TID 0000.0001) %MON obc_N_vVel_Int               =  -4.4749161321656E+00
(PID.TID 0000.0001) // =======================================================
(PID.TID 0000.0001) // End OBCS MONITOR field statistics
(PID.TID 0000.0001) // =======================================================
 cg2d: Sum(rhs),rhsMax =   3.00851991657963E+00  4.53043456899895E+02
(PID.TID 0000.0001)      cg2d_init_res =   3.77983781617587E-06
(PID.TID 0000.0001)      cg2d_iters(min,last) =      -1      75
(PID.TID 0000.0001)      cg2d_last_res =   9.32655374882252E-12
(PID.TID 0000.0001) // =======================================================
(PID.TID 0000.0001) // Begin MONITOR dynamic field statistics
(PID.TID 0000.0001) // =======================================================
(PID.TID 0000.0001) %MON time_tsnumber                =                  1198
(PID.TID 0000.0001) %MON time_secondsf                =   1.1980000000000E+05
(PID.TID 0000.0001) %MON dynstat_eta_max              =   5.7987866257288E+00
(PID.TID 0000.0001) %MON dynstat_eta_min              =  -1.4170650944299E+01
(PID.TID 0000.0001) %MON dynstat_eta_mean             =  -2.5240560428878E+00
(PID.TID 0000.0001) %MON dynstat_eta_sd               =   4.9410720251928E+00
(PID.TID 0000.0001) %MON dynstat_eta_del2             =   1.9058772050767E-01
(PID.TID 0000.0001) %MON dynstat_uvel_max             =   7.2752933799176E-03
(PID.TID 0000.0001) %MON dynstat_uvel_min             =  -3.3787156126554E-02
(PID.TID 0000.0001) %MON dynstat_uvel_mean            =   1.5393090038389E-09
(PID.TID 0000.0001) %MON dynstat_uvel_sd              =   9.2839385048167E-04
(PID.TID 0000.0001) %MON dynstat_uvel_del2            =   1.4215203281544E-06
(PID.TID 0000.0001) %MON dynstat_vvel_max             =   2.3121382566920E-02
(PID.TID 0000.0001) %MON dynstat_vvel_min             =  -8.7702879022835E-03
(PID.TID 0000.0001) %MON dynstat_vvel_mean            =  -9.7435904041256E-09
(PID.TID 0000.0001) %MON dynstat_vvel_sd              =   4.4325353521911E-04
(PID.TID 0000.0001) %MON dynstat_vvel_del2            =   1.1783685145062E-06
(PID.TID 0000.0001) %MON dynstat_wvel_max             =   1.3640088632226E-03
(PID.TID 0000.0001) %MON dynstat_wvel_min             =  -1.6678622047911E-03
(PID.TID 0000.0001) %MON dynstat_wvel_mean            =   4.5985469463233E-10
(PID.TID 0000.0001) %MON dynstat_wvel_sd              =   2.2292294806925E-05
(PID.TID 0000.0001) %MON dynstat_wvel_del2            =   9.1240398617127E-08
(PID.TID 0000.0001) %MON dynstat_theta_max            =   1.2000000000000E+00
(PID.TID 0000.0001) %MON dynstat_theta_min            =  -1.0000000000000E+00
(PID.TID 0000.0001) %MON dynstat_theta_mean           =   5.6510082985916E-01
(PID.TID 0000.0001) %MON dynstat_theta_sd             =   8.4892656684708E-01
(PID.TID 0000.0001) %MON dynstat_theta_del2           =   3.2929330083447E-06
(PID.TID 0000.0001) %MON dynstat_salt_max             =   3.4700000000000E+01
(PID.TID 0000.0001) %MON dynstat_salt_min             =   3.4000000000000E+01
(PID.TID 0000.0001) %MON dynstat_salt_mean            =   3.4497954353150E+01
(PID.TID 0000.0001) %MON dynstat_salt_sd              =   2.7010779233729E-01
(PID.TID 0000.0001) %MON dynstat_salt_del2            =   1.3028959928621E-06
(PID.TID 0000.0001) %MON advcfl_uvel_max              =   3.3787156126554E-03
(PID.TID 0000.0001) %MON advcfl_vvel_max              =   2.3121382566920E-03
(PID.TID 0000.0001) %MON advcfl_wvel_max              =   8.3393110239555E-03
(PID.TID 0000.0001) %MON advcfl_W_hf_max              =   8.3393110239555E-03
(PID.TID 0000.0001) %MON pe_b_mean                    =  -6.8195982923701E-01
(PID.TID 0000.0001) %MON ke_max                       =   4.6689816584966E-04
(PID.TID 0000.0001) %MON ke_mean                      =   5.2109015691553E-07
(PID.TID 0000.0001) %MON ke_vol                       =   4.6183070667762E+12
(PID.TID 0000.0001) // =======================================================
(PID.TID 0000.0001) // End MONITOR dynamic field statistics
(PID.TID 0000.0001) // =======================================================
(PID.TID 0000.0001) // =======================================================
(PID.TID 0000.0001) // Begin OBCS MONITOR field statistics
(PID.TID 0000.0001) // =======================================================
(PID.TID 0000.0001) %MON obc_N_vVel_max               =  -5.2888508605472E-08
(PID.TID 0000.0001) %MON obc_N_vVel_min               =  -5.2888508605473E-08
(PID.TID 0000.0001) %MON obc_N_vVel_mean              =  -5.2888508605473E-08
(PID.TID 0000.0001) %MON obc_N_vVel_sd                =  -1.0412963948917E-28
(PID.TID 0000.0001) %MON obc_N_vVel_Int               =  -3.4906415679612E+00
(PID.TID 0000.0001) // =======================================================
(PID.TID 0000.0001) // End OBCS MONITOR field statistics
(PID.TID 0000.0001) // =======================================================
 cg2d: Sum(rhs),rhsMax =   3.00851189928716E+00  4.53043446545609E+02
(PID.TID 0000.0001)      cg2d_init_res =   3.78515202473988E-06
(PID.TID 0000.0001)      cg2d_iters(min,last) =      -1      75
(PID.TID 0000.0001)      cg2d_last_res =   9.34221462603953E-12
(PID.TID 0000.0001) // =======================================================
(PID.TID 0000.0001) // Begin MONITOR dynamic field statistics
(PID.TID 0000.0001) // =======================================================
(PID.TID 0000.0001) %MON time_tsnumber                =                  1199
(PID.TID 0000.0001) %MON time_secondsf                =   1.1990000000000E+05
(PID.TID 0000.0001) %MON dynstat_eta_max              =   5.7987894231585E+00
(PID.TID 0000.0001) %MON dynstat_eta_min              =  -1.4170636598113E+01
(PID.TID 0000.0001) %MON dynstat_eta_mean             =  -2.5240492589380E+00
(PID.TID 0000.0001) %MON dynstat_eta_sd               =   4.9410700903858E+00
(PID.TID 0000.0001) %MON dynstat_eta_del2             =   1.9058774074898E-01
(PID.TID 0000.0001) %MON dynstat_uvel_max             =   7.2928382076389E-03
(PID.TID 0000.0001) %MON dynstat_uvel_min             =  -3.3860269755527E-02
(PID.TID 0000.0001) %MON dynstat_uvel_mean            =   1.5311852146921E-09
(PID.TID 0000.0001) %MON dynstat_uvel_sd              =   9.3063529868768E-04
(PID.TID 0000.0001) %MON dynstat_uvel_del2            =   1.4249741383299E-06
(PID.TID 0000.0001) %MON dynstat_vvel_max             =   2.3161839597634E-02
(PID.TID 0000.0001) %MON dynstat_vvel_min             =  -8.7895465532624E-03
(PID.TID 0000.0001) %MON dynstat_vvel_mean            =   6.6101444543538E-09
(PID.TID 0000.0001) %MON dynstat_vvel_sd              =   4.4414132829656E-04
(PID.TID 0000.0001) %MON dynstat_vvel_del2            =   1.1807960147612E-06
(PID.TID 0000.0001) %MON dynstat_wvel_max             =   1.3669511011744E-03
(PID.TID 0000.0001) %MON dynstat_wvel_min             =  -1.6722950399375E-03
(PID.TID 0000.0001) %MON dynstat_wvel_mean            =   4.5950671839569E-10
(PID.TID 0000.0001) %MON dynstat_wvel_sd              =   2.2349715708265E-05
(PID.TID 0000.0001) %MON dynstat_wvel_del2            =   9.1453187354568E-08
(PID.TID 0000.0001) %MON dynstat_theta_max            =   1.2000000000000E+00
(PID.TID 0000.0001) %MON dynstat_theta_min            =  -1.0000000000000E+00
(PID.TID 0000.0001) %MON dynstat_theta_mean           =   5.6510008109131E-01
(PID.TID 0000.0001) %MON dynstat_theta_sd             =   8.4892623289206E-01
(PID.TID 0000.0001) %MON dynstat_theta_del2           =   3.2994415429389E-06
(PID.TID 0000.0001) %MON dynstat_salt_max             =   3.4700000000000E+01
(PID.TID 0000.0001) %MON dynstat_salt_min             =   3.4000000000000E+01
(PID.TID 0000.0001) %MON dynstat_salt_mean            =   3.4497954054072E+01
(PID.TID 0000.0001) %MON dynstat_salt_sd              =   2.7010766627582E-01
(PID.TID 0000.0001) %MON dynstat_salt_del2            =   1.3054829771950E-06
(PID.TID 0000.0001) %MON advcfl_uvel_max              =   3.3860269755527E-03
(PID.TID 0000.0001) %MON advcfl_vvel_max              =   2.3161839597634E-03
(PID.TID 0000.0001) %MON advcfl_wvel_max              =   8.3614751996874E-03
(PID.TID 0000.0001) %MON advcfl_W_hf_max              =   8.3614751996874E-03
(PID.TID 0000.0001) %MON pe_b_mean                    =  -6.8195781772817E-01
(PID.TID 0000.0001) %MON ke_max                       =   4.6933116282359E-04
(PID.TID 0000.0001) %MON ke_mean                      =   5.2352834999202E-07
(PID.TID 0000.0001) %MON ke_vol                       =   4.6183071071052E+12
(PID.TID 0000.0001) // =======================================================
(PID.TID 0000.0001) // End MONITOR dynamic field statistics
(PID.TID 0000.0001) // =======================================================
(PID.TID 0000.0001) // =======================================================
(PID.TID 0000.0001) // Begin OBCS MONITOR field statistics
(PID.TID 0000.0001) // =======================================================
(PID.TID 0000.0001) %MON obc_N_vVel_max               =  -3.7373910634768E-08
(PID.TID 0000.0001) %MON obc_N_vVel_min               =  -3.7373910634769E-08
(PID.TID 0000.0001) %MON obc_N_vVel_mean              =  -3.7373910634768E-08
(PID.TID 0000.0001) %MON obc_N_vVel_sd                =   7.8189973880689E-15
(PID.TID 0000.0001) %MON obc_N_vVel_Int               =  -2.4666781018947E+00
(PID.TID 0000.0001) // =======================================================
(PID.TID 0000.0001) // End OBCS MONITOR field statistics
(PID.TID 0000.0001) // =======================================================
 cg2d: Sum(rhs),rhsMax =   3.00850388524755E+00  4.53043436748958E+02
(PID.TID 0000.0001)      cg2d_init_res =   3.79063138178546E-06
(PID.TID 0000.0001)      cg2d_iters(min,last) =      -1      75
(PID.TID 0000.0001)      cg2d_last_res =   9.35776265402701E-12
(PID.TID 0000.0001) // =======================================================
(PID.TID 0000.0001) // Begin MONITOR dynamic field statistics
(PID.TID 0000.0001) // =======================================================
(PID.TID 0000.0001) %MON time_tsnumber                =                  1200
(PID.TID 0000.0001) %MON time_secondsf                =   1.2000000000000E+05
(PID.TID 0000.0001) %MON dynstat_eta_max              =   5.7987921925026E+00
(PID.TID 0000.0001) %MON dynstat_eta_min              =  -1.4170622261689E+01
(PID.TID 0000.0001) %MON dynstat_eta_mean             =  -2.5240424808243E+00
(PID.TID 0000.0001) %MON dynstat_eta_sd               =   4.9410681581455E+00
(PID.TID 0000.0001) %MON dynstat_eta_del2             =   1.9058776104188E-01
(PID.TID 0000.0001) %MON dynstat_uvel_max             =   7.3104172397427E-03
(PID.TID 0000.0001) %MON dynstat_uvel_min             =  -3.3933439173413E-02
(PID.TID 0000.0001) %MON dynstat_uvel_mean            =   1.5331122436007E-09
(PID.TID 0000.0001) %MON dynstat_uvel_sd              =   9.3288133698269E-04
(PID.TID 0000.0001) %MON dynstat_uvel_del2            =   1.4284358871130E-06
(PID.TID 0000.0001) %MON dynstat_vvel_max             =   2.3202315613433E-02
(PID.TID 0000.0001) %MON dynstat_vvel_min             =  -8.8088270639570E-03
(PID.TID 0000.0001) %MON dynstat_vvel_mean            =   2.3176466653579E-08
(PID.TID 0000.0001) %MON dynstat_vvel_sd              =   4.4503098430372E-04
(PID.TID 0000.0001) %MON dynstat_vvel_del2            =   1.1832296203728E-06
(PID.TID 0000.0001) %MON dynstat_wvel_max             =   1.3698965693721E-03
(PID.TID 0000.0001) %MON dynstat_wvel_min             =  -1.6767339927723E-03
(PID.TID 0000.0001) %MON dynstat_wvel_mean            =   4.5730546522219E-10
(PID.TID 0000.0001) %MON dynstat_wvel_sd              =   2.2407736052372E-05
(PID.TID 0000.0001) %MON dynstat_wvel_del2            =   9.1676143471157E-08
(PID.TID 0000.0001) %MON dynstat_theta_max            =   1.2000000000000E+00
(PID.TID 0000.0001) %MON dynstat_theta_min            =  -1.0000000000000E+00
(PID.TID 0000.0001) %MON dynstat_theta_mean           =   5.6509933102877E-01
(PID.TID 0000.0001) %MON dynstat_theta_sd             =   8.4892589826618E-01
(PID.TID 0000.0001) %MON dynstat_theta_del2           =   3.3059547958587E-06
(PID.TID 0000.0001) %MON dynstat_salt_max             =   3.4700000000000E+01
(PID.TID 0000.0001) %MON dynstat_salt_min             =   3.4000000000000E+01
(PID.TID 0000.0001) %MON dynstat_salt_mean            =   3.4497953754475E+01
(PID.TID 0000.0001) %MON dynstat_salt_sd              =   2.7010753995912E-01
(PID.TID 0000.0001) %MON dynstat_salt_del2            =   1.3080723136834E-06
(PID.TID 0000.0001) %MON advcfl_uvel_max              =   3.3933439173413E-03
(PID.TID 0000.0001) %MON advcfl_vvel_max              =   2.3202315613433E-03
(PID.TID 0000.0001) %MON advcfl_wvel_max              =   8.3836699638617E-03
(PID.TID 0000.0001) %MON advcfl_W_hf_max              =   8.3836699638617E-03
(PID.TID 0000.0001) %MON pe_b_mean                    =  -6.8195580612091E-01
(PID.TID 0000.0001) %MON ke_max                       =   4.7177483453189E-04
(PID.TID 0000.0001) %MON ke_mean                      =   5.2597729167773E-07
(PID.TID 0000.0001) %MON ke_vol                       =   4.6183071474019E+12
(PID.TID 0000.0001) // =======================================================
(PID.TID 0000.0001) // End MONITOR dynamic field statistics
(PID.TID 0000.0001) // =======================================================
(PID.TID 0000.0001) // =======================================================
(PID.TID 0000.0001) // Begin OBCS MONITOR field statistics
(PID.TID 0000.0001) // =======================================================
(PID.TID 0000.0001) %MON obc_N_vVel_max               =  -2.1491772825387E-08
(PID.TID 0000.0001) %MON obc_N_vVel_min               =  -2.1491772825388E-08
(PID.TID 0000.0001) %MON obc_N_vVel_mean              =  -2.1491772825388E-08
(PID.TID 0000.0001) %MON obc_N_vVel_sd                =  -3.2441904727214E-29
(PID.TID 0000.0001) %MON obc_N_vVel_Int               =  -1.4184570064756E+00
(PID.TID 0000.0001) // =======================================================
(PID.TID 0000.0001) // End OBCS MONITOR field statistics
(PID.TID 0000.0001) // =======================================================
 cg2d: Sum(rhs),rhsMax =   3.00849587508208E+00  4.53043427438696E+02
(PID.TID 0000.0001)      cg2d_init_res =   3.79626602001819E-06
(PID.TID 0000.0001)      cg2d_iters(min,last) =      -1      75
(PID.TID 0000.0001)      cg2d_last_res =   9.37327569415569E-12
(PID.TID 0000.0001) // =======================================================
(PID.TID 0000.0001) // Begin MONITOR dynamic field statistics
(PID.TID 0000.0001) // =======================================================
(PID.TID 0000.0001) %MON time_tsnumber                =                  1201
(PID.TID 0000.0001) %MON time_secondsf                =   1.2010000000000E+05
(PID.TID 0000.0001) %MON dynstat_eta_max              =   5.7987949338991E+00
(PID.TID 0000.0001) %MON dynstat_eta_min              =  -1.4170607934785E+01
(PID.TID 0000.0001) %MON dynstat_eta_mean             =  -2.5240357086710E+00
(PID.TID 0000.0001) %MON dynstat_eta_sd               =   4.9410662282853E+00
(PID.TID 0000.0001) %MON dynstat_eta_del2             =   1.9058778138566E-01
(PID.TID 0000.0001) %MON dynstat_uvel_max             =   7.3280304738690E-03
(PID.TID 0000.0001) %MON dynstat_uvel_min             =  -3.4006664046089E-02
(PID.TID 0000.0001) %MON dynstat_uvel_mean            =   1.5451944635603E-09
(PID.TID 0000.0001) %MON dynstat_uvel_sd              =   9.3513197549494E-04
(PID.TID 0000.0001) %MON dynstat_uvel_del2            =   1.4319055929568E-06
(PID.TID 0000.0001) %MON dynstat_vvel_max             =   2.3242810479954E-02
(PID.TID 0000.0001) %MON dynstat_vvel_min             =  -8.8281293983181E-03
(PID.TID 0000.0001) %MON dynstat_vvel_mean            =   3.9708241982749E-08
(PID.TID 0000.0001) %MON dynstat_vvel_sd              =   4.4592235363034E-04
(PID.TID 0000.0001) %MON dynstat_vvel_del2            =   1.1856683626139E-06
(PID.TID 0000.0001) %MON dynstat_wvel_max             =   1.3728452670649E-03
(PID.TID 0000.0001) %MON dynstat_wvel_min             =  -1.6811790327015E-03
(PID.TID 0000.0001) %MON dynstat_wvel_mean            =   4.5329911133360E-10
(PID.TID 0000.0001) %MON dynstat_wvel_sd              =   2.2465689948137E-05
(PID.TID 0000.0001) %MON dynstat_wvel_del2            =   9.1905920856574E-08
(PID.TID 0000.0001) %MON dynstat_theta_max            =   1.2000000000000E+00
(PID.TID 0000.0001) %MON dynstat_theta_min            =  -1.0000000000000E+00
(PID.TID 0000.0001) %MON dynstat_theta_mean           =   5.6509857966946E-01
(PID.TID 0000.0001) %MON dynstat_theta_sd             =   8.4892556296796E-01
(PID.TID 0000.0001) %MON dynstat_theta_del2           =   3.3124741369705E-06
(PID.TID 0000.0001) %MON dynstat_salt_max             =   3.4700000000000E+01
(PID.TID 0000.0001) %MON dynstat_salt_min             =   3.4000000000000E+01
(PID.TID 0000.0001) %MON dynstat_salt_mean            =   3.4497953454358E+01
(PID.TID 0000.0001) %MON dynstat_salt_sd              =   2.7010741338686E-01
(PID.TID 0000.0001) %MON dynstat_salt_del2            =   1.3106643633119E-06
(PID.TID 0000.0001) %MON advcfl_uvel_max              =   3.4006664046089E-03
(PID.TID 0000.0001) %MON advcfl_vvel_max              =   2.3242810479954E-03
(PID.TID 0000.0001) %MON advcfl_wvel_max              =   8.4058951635077E-03
(PID.TID 0000.0001) %MON advcfl_W_hf_max              =   8.4058951635077E-03
(PID.TID 0000.0001) %MON pe_b_mean                    =  -6.8195379438695E-01
(PID.TID 0000.0001) %MON ke_max                       =   4.7422921905689E-04
(PID.TID 0000.0001) %MON ke_mean                      =   5.2843695987313E-07
(PID.TID 0000.0001) %MON ke_vol                       =   4.6183071876639E+12
(PID.TID 0000.0001) // =======================================================
(PID.TID 0000.0001) // End MONITOR dynamic field statistics
(PID.TID 0000.0001) // =======================================================
(PID.TID 0000.0001) // =======================================================
(PID.TID 0000.0001) // Begin OBCS MONITOR field statistics
(PID.TID 0000.0001) // =======================================================
(PID.TID 0000.0001) %MON obc_N_vVel_max               =  -5.4803859919877E-09
(PID.TID 0000.0001) %MON obc_N_vVel_min               =  -5.4803859919877E-09
(PID.TID 0000.0001) %MON obc_N_vVel_mean              =  -5.4803859919877E-09
(PID.TID 0000.0001) %MON obc_N_vVel_sd                =  -1.3620176566707E-30
(PID.TID 0000.0001) %MON obc_N_vVel_Int               =  -3.6170547547119E-01
(PID.TID 0000.0001) // =======================================================
(PID.TID 0000.0001) // End OBCS MONITOR field statistics
(PID.TID 0000.0001) // =======================================================
 cg2d: Sum(rhs),rhsMax =   3.00848786914096E+00  4.53043418536813E+02
(PID.TID 0000.0001)      cg2d_init_res =   3.80204258492990E-06
(PID.TID 0000.0001)      cg2d_iters(min,last) =      -1      75
(PID.TID 0000.0001)      cg2d_last_res =   9.38884226013542E-12
(PID.TID 0000.0001) // =======================================================
(PID.TID 0000.0001) // Begin MONITOR dynamic field statistics
(PID.TID 0000.0001) // =======================================================
(PID.TID 0000.0001) %MON time_tsnumber                =                  1202
(PID.TID 0000.0001) %MON time_secondsf                =   1.2020000000000E+05
(PID.TID 0000.0001) %MON dynstat_eta_max              =   5.7987976479022E+00
(PID.TID 0000.0001) %MON dynstat_eta_min              =  -1.4170593616675E+01
(PID.TID 0000.0001) %MON dynstat_eta_mean             =  -2.5240289423373E+00
(PID.TID 0000.0001) %MON dynstat_eta_sd               =   4.9410643005322E+00
(PID.TID 0000.0001) %MON dynstat_eta_del2             =   1.9058780177939E-01
(PID.TID 0000.0001) %MON dynstat_uvel_max             =   7.3456779068772E-03
(PID.TID 0000.0001) %MON dynstat_uvel_min             =  -3.4079944039848E-02
(PID.TID 0000.0001) %MON dynstat_uvel_mean            =   1.5673808772007E-09
(PID.TID 0000.0001) %MON dynstat_uvel_sd              =   9.3738722436398E-04
(PID.TID 0000.0001) %MON dynstat_uvel_del2            =   1.4353832741587E-06
(PID.TID 0000.0001) %MON dynstat_vvel_max             =   2.3283324063095E-02
(PID.TID 0000.0001) %MON dynstat_vvel_min             =  -8.8474535193064E-03
(PID.TID 0000.0001) %MON dynstat_vvel_mean            =   5.5960000047897E-08
(PID.TID 0000.0001) %MON dynstat_vvel_sd              =   4.4681529220899E-04
(PID.TID 0000.0001) %MON dynstat_vvel_del2            =   1.1881112253236E-06
(PID.TID 0000.0001) %MON dynstat_wvel_max             =   1.3757971935878E-03
(PID.TID 0000.0001) %MON dynstat_wvel_min             =  -1.6856301288244E-03
(PID.TID 0000.0001) %MON dynstat_wvel_mean            =   4.4756349303314E-10
(PID.TID 0000.0001) %MON dynstat_wvel_sd              =   2.2522942387430E-05
(PID.TID 0000.0001) %MON dynstat_wvel_del2            =   9.2138926963550E-08
(PID.TID 0000.0001) %MON dynstat_theta_max            =   1.2000000000000E+00
(PID.TID 0000.0001) %MON dynstat_theta_min            =  -1.0000000000000E+00
(PID.TID 0000.0001) %MON dynstat_theta_mean           =   5.6509782701121E-01
(PID.TID 0000.0001) %MON dynstat_theta_sd             =   8.4892522699717E-01
(PID.TID 0000.0001) %MON dynstat_theta_del2           =   3.3190011828837E-06
(PID.TID 0000.0001) %MON dynstat_salt_max             =   3.4700000000000E+01
(PID.TID 0000.0001) %MON dynstat_salt_min             =   3.4000000000000E+01
(PID.TID 0000.0001) %MON dynstat_salt_mean            =   3.4497953153720E+01
(PID.TID 0000.0001) %MON dynstat_salt_sd              =   2.7010728655878E-01
(PID.TID 0000.0001) %MON dynstat_salt_del2            =   1.3132595419824E-06
(PID.TID 0000.0001) %MON advcfl_uvel_max              =   3.4079944039848E-03
(PID.TID 0000.0001) %MON advcfl_vvel_max              =   2.3283324063095E-03
(PID.TID 0000.0001) %MON advcfl_wvel_max              =   8.4281506441219E-03
(PID.TID 0000.0001) %MON advcfl_W_hf_max              =   8.4281506441219E-03
(PID.TID 0000.0001) %MON pe_b_mean                    =  -6.8195178244556E-01
(PID.TID 0000.0001) %MON ke_max                       =   4.7669435462282E-04
(PID.TID 0000.0001) %MON ke_mean                      =   5.3090733457717E-07
(PID.TID 0000.0001) %MON ke_vol                       =   4.6183072278905E+12
(PID.TID 0000.0001) // =======================================================
(PID.TID 0000.0001) // End MONITOR dynamic field statistics
(PID.TID 0000.0001) // =======================================================
(PID.TID 0000.0001) // =======================================================
(PID.TID 0000.0001) // Begin OBCS MONITOR field statistics
(PID.TID 0000.0001) // =======================================================
(PID.TID 0000.0001) %MON obc_N_vVel_max               =   1.0421096869528E-08
(PID.TID 0000.0001) %MON obc_N_vVel_min               =   1.0421096869528E-08
(PID.TID 0000.0001) %MON obc_N_vVel_mean              =   1.0421096869528E-08
(PID.TID 0000.0001) %MON obc_N_vVel_sd                =  -4.8564249477669E-30
(PID.TID 0000.0001) %MON obc_N_vVel_Int               =   6.8779239338886E-01
(PID.TID 0000.0001) // =======================================================
(PID.TID 0000.0001) // End OBCS MONITOR field statistics
(PID.TID 0000.0001) // =======================================================
 cg2d: Sum(rhs),rhsMax =   3.00847986749848E+00  4.53043409959679E+02
(PID.TID 0000.0001)      cg2d_init_res =   3.80794624703906E-06
(PID.TID 0000.0001)      cg2d_iters(min,last) =      -1      75
(PID.TID 0000.0001)      cg2d_last_res =   9.40453715291435E-12
(PID.TID 0000.0001) // =======================================================
(PID.TID 0000.0001) // Begin MONITOR dynamic field statistics
(PID.TID 0000.0001) // =======================================================
(PID.TID 0000.0001) %MON time_tsnumber                =                  1203
(PID.TID 0000.0001) %MON time_secondsf                =   1.2030000000000E+05
(PID.TID 0000.0001) %MON dynstat_eta_max              =   5.7988003355005E+00
(PID.TID 0000.0001) %MON dynstat_eta_min              =  -1.4170579306150E+01
(PID.TID 0000.0001) %MON dynstat_eta_mean             =  -2.5240221814195E+00
(PID.TID 0000.0001) %MON dynstat_eta_sd               =   4.9410623745322E+00
(PID.TID 0000.0001) %MON dynstat_eta_del2             =   1.9058782222194E-01
(PID.TID 0000.0001) %MON dynstat_uvel_max             =   7.3633595347582E-03
(PID.TID 0000.0001) %MON dynstat_uvel_min             =  -3.4153278821346E-02
(PID.TID 0000.0001) %MON dynstat_uvel_mean            =   1.5994656214264E-09
(PID.TID 0000.0001) %MON dynstat_uvel_sd              =   9.3964709372985E-04
(PID.TID 0000.0001) %MON dynstat_uvel_del2            =   1.4388689487193E-06
(PID.TID 0000.0001) %MON dynstat_vvel_max             =   2.3323856229434E-02
(PID.TID 0000.0001) %MON dynstat_vvel_min             =  -8.8667993883109E-03
(PID.TID 0000.0001) %MON dynstat_vvel_mean            =   7.1691701660870E-08
(PID.TID 0000.0001) %MON dynstat_vvel_sd              =   4.4770967045299E-04
(PID.TID 0000.0001) %MON dynstat_vvel_del2            =   1.1905572035121E-06
(PID.TID 0000.0001) %MON dynstat_wvel_max             =   1.3787523482153E-03
(PID.TID 0000.0001) %MON dynstat_wvel_min             =  -1.6900872499592E-03
(PID.TID 0000.0001) %MON dynstat_wvel_mean            =   4.4020028039112E-10
(PID.TID 0000.0001) %MON dynstat_wvel_sd              =   2.2578926711783E-05
(PID.TID 0000.0001) %MON dynstat_wvel_del2            =   9.2371533598001E-08
(PID.TID 0000.0001) %MON dynstat_theta_max            =   1.2000000000000E+00
(PID.TID 0000.0001) %MON dynstat_theta_min            =  -1.0000000000000E+00
(PID.TID 0000.0001) %MON dynstat_theta_mean           =   5.6509707305167E-01
(PID.TID 0000.0001) %MON dynstat_theta_sd             =   8.4892489035348E-01
(PID.TID 0000.0001) %MON dynstat_theta_del2           =   3.3255374552836E-06
(PID.TID 0000.0001) %MON dynstat_salt_max             =   3.4700000000000E+01
(PID.TID 0000.0001) %MON dynstat_salt_min             =   3.4000000000000E+01
(PID.TID 0000.0001) %MON dynstat_salt_mean            =   3.4497952852559E+01
(PID.TID 0000.0001) %MON dynstat_salt_sd              =   2.7010715947497E-01
(PID.TID 0000.0001) %MON dynstat_salt_del2            =   1.3158582699098E-06
(PID.TID 0000.0001) %MON advcfl_uvel_max              =   3.4153278821346E-03
(PID.TID 0000.0001) %MON advcfl_vvel_max              =   2.3323856229434E-03
(PID.TID 0000.0001) %MON advcfl_wvel_max              =   8.4504362497961E-03
(PID.TID 0000.0001) %MON advcfl_W_hf_max              =   8.4504362497961E-03
(PID.TID 0000.0001) %MON pe_b_mean                    =  -6.8194977016486E-01
(PID.TID 0000.0001) %MON ke_max                       =   4.7917027959667E-04
(PID.TID 0000.0001) %MON ke_mean                      =   5.3338840190251E-07
(PID.TID 0000.0001) %MON ke_vol                       =   4.6183072680825E+12
(PID.TID 0000.0001) // =======================================================
(PID.TID 0000.0001) // End MONITOR dynamic field statistics
(PID.TID 0000.0001) // =======================================================
(PID.TID 0000.0001) // =======================================================
(PID.TID 0000.0001) // Begin OBCS MONITOR field statistics
(PID.TID 0000.0001) // =======================================================
(PID.TID 0000.0001) %MON obc_N_vVel_max               =   2.5976397514218E-08
(PID.TID 0000.0001) %MON obc_N_vVel_min               =   2.5976397514217E-08
(PID.TID 0000.0001) %MON obc_N_vVel_mean              =   2.5976397514217E-08
(PID.TID 0000.0001) %MON obc_N_vVel_sd                =   8.8260984806751E-15
(PID.TID 0000.0001) %MON obc_N_vVel_Int               =   1.7144422359383E+00
(PID.TID 0000.0001) // =======================================================
(PID.TID 0000.0001) // End OBCS MONITOR field statistics
(PID.TID 0000.0001) // =======================================================
 cg2d: Sum(rhs),rhsMax =   3.00847186995295E+00  4.53043401619438E+02
(PID.TID 0000.0001)      cg2d_init_res =   3.81396053319350E-06
(PID.TID 0000.0001)      cg2d_iters(min,last) =      -1      75
(PID.TID 0000.0001)      cg2d_last_res =   9.42044170609966E-12
(PID.TID 0000.0001) // =======================================================
(PID.TID 0000.0001) // Begin MONITOR dynamic field statistics
(PID.TID 0000.0001) // =======================================================
(PID.TID 0000.0001) %MON time_tsnumber                =                  1204
(PID.TID 0000.0001) %MON time_secondsf                =   1.2040000000000E+05
(PID.TID 0000.0001) %MON dynstat_eta_max              =   5.7988029980677E+00
(PID.TID 0000.0001) %MON dynstat_eta_min              =  -1.4170565001549E+01
(PID.TID 0000.0001) %MON dynstat_eta_mean             =  -2.5240154252590E+00
(PID.TID 0000.0001) %MON dynstat_eta_sd               =   4.9410604498550E+00
(PID.TID 0000.0001) %MON dynstat_eta_del2             =   1.9058784271202E-01
(PID.TID 0000.0001) %MON dynstat_uvel_max             =   7.3810753526171E-03
(PID.TID 0000.0001) %MON dynstat_uvel_min             =  -3.4226668057992E-02
(PID.TID 0000.0001) %MON dynstat_uvel_mean            =   1.6410868337624E-09
(PID.TID 0000.0001) %MON dynstat_uvel_sd              =   9.4191159372854E-04
(PID.TID 0000.0001) %MON dynstat_uvel_del2            =   1.4423626342503E-06
(PID.TID 0000.0001) %MON dynstat_vvel_max             =   2.3364406846761E-02
(PID.TID 0000.0001) %MON dynstat_vvel_min             =  -8.8861669643876E-03
(PID.TID 0000.0001) %MON dynstat_vvel_mean            =   8.6672402783825E-08
(PID.TID 0000.0001) %MON dynstat_vvel_sd              =   4.4860538109311E-04
(PID.TID 0000.0001) %MON dynstat_vvel_del2            =   1.1930053598354E-06
(PID.TID 0000.0001) %MON dynstat_wvel_max             =   1.3817107301177E-03
(PID.TID 0000.0001) %MON dynstat_wvel_min             =  -1.6945503647155E-03
(PID.TID 0000.0001) %MON dynstat_wvel_mean            =   4.3133492957759E-10
(PID.TID 0000.0001) %MON dynstat_wvel_sd              =   2.2633177154746E-05
(PID.TID 0000.0001) %MON dynstat_wvel_del2            =   9.2600285955199E-08
(PID.TID 0000.0001) %MON dynstat_theta_max            =   1.2000000000000E+00
(PID.TID 0000.0001) %MON dynstat_theta_min            =  -1.0000000000000E+00
(PID.TID 0000.0001) %MON dynstat_theta_mean           =   5.6509631778837E-01
(PID.TID 0000.0001) %MON dynstat_theta_sd             =   8.4892455303748E-01
(PID.TID 0000.0001) %MON dynstat_theta_del2           =   3.3320843823994E-06
(PID.TID 0000.0001) %MON dynstat_salt_max             =   3.4700000000000E+01
(PID.TID 0000.0001) %MON dynstat_salt_min             =   3.4000000000000E+01
(PID.TID 0000.0001) %MON dynstat_salt_mean            =   3.4497952550875E+01
(PID.TID 0000.0001) %MON dynstat_salt_sd              =   2.7010703213547E-01
(PID.TID 0000.0001) %MON dynstat_salt_del2            =   1.3184609319166E-06
(PID.TID 0000.0001) %MON advcfl_uvel_max              =   3.4226668057992E-03
(PID.TID 0000.0001) %MON advcfl_vvel_max              =   2.3364406846761E-03
(PID.TID 0000.0001) %MON advcfl_wvel_max              =   8.4727518235773E-03
(PID.TID 0000.0001) %MON advcfl_W_hf_max              =   8.4727518235773E-03
(PID.TID 0000.0001) %MON pe_b_mean                    =  -6.8194775736400E-01
(PID.TID 0000.0001) %MON ke_max                       =   4.8165703249265E-04
(PID.TID 0000.0001) %MON ke_mean                      =   5.3588015765141E-07
(PID.TID 0000.0001) %MON ke_vol                       =   4.6183073082424E+12
(PID.TID 0000.0001) // =======================================================
(PID.TID 0000.0001) // End MONITOR dynamic field statistics
(PID.TID 0000.0001) // =======================================================
(PID.TID 0000.0001) // =======================================================
(PID.TID 0000.0001) // Begin OBCS MONITOR field statistics
(PID.TID 0000.0001) // =======================================================
(PID.TID 0000.0001) %MON obc_N_vVel_max               =   4.0955732221816E-08
(PID.TID 0000.0001) %MON obc_N_vVel_min               =   4.0955732221815E-08
(PID.TID 0000.0001) %MON obc_N_vVel_mean              =   4.0955732221815E-08
(PID.TID 0000.0001) %MON obc_N_vVel_sd                =  -8.2830395048206E-30
(PID.TID 0000.0001) %MON obc_N_vVel_Int               =   2.7030783266398E+00
(PID.TID 0000.0001) // =======================================================
(PID.TID 0000.0001) // End OBCS MONITOR field statistics
(PID.TID 0000.0001) // =======================================================
 cg2d: Sum(rhs),rhsMax =   3.00846387602993E+00  4.53043393425361E+02
(PID.TID 0000.0001)      cg2d_init_res =   3.82006946685594E-06
(PID.TID 0000.0001)      cg2d_iters(min,last) =      -1      75
(PID.TID 0000.0001)      cg2d_last_res =   9.43662454027058E-12
(PID.TID 0000.0001) // =======================================================
(PID.TID 0000.0001) // Begin MONITOR dynamic field statistics
(PID.TID 0000.0001) // =======================================================
(PID.TID 0000.0001) %MON time_tsnumber                =                  1205
(PID.TID 0000.0001) %MON time_secondsf                =   1.2050000000000E+05
(PID.TID 0000.0001) %MON dynstat_eta_max              =   5.7988056373758E+00
(PID.TID 0000.0001) %MON dynstat_eta_min              =  -1.4170550700774E+01
(PID.TID 0000.0001) %MON dynstat_eta_mean             =  -2.5240086729523E+00
(PID.TID 0000.0001) %MON dynstat_eta_sd               =   4.9410585260021E+00
(PID.TID 0000.0001) %MON dynstat_eta_del2             =   1.9058786324819E-01
(PID.TID 0000.0001) %MON dynstat_uvel_max             =   7.3988253545210E-03
(PID.TID 0000.0001) %MON dynstat_uvel_min             =  -3.4300111417696E-02
(PID.TID 0000.0001) %MON dynstat_uvel_mean            =   1.6917358510239E-09
(PID.TID 0000.0001) %MON dynstat_uvel_sd              =   9.4418073446854E-04
(PID.TID 0000.0001) %MON dynstat_uvel_del2            =   1.4458643476403E-06
(PID.TID 0000.0001) %MON dynstat_vvel_max             =   2.3404975784573E-02
(PID.TID 0000.0001) %MON dynstat_vvel_min             =  -8.9055562039162E-03
(PID.TID 0000.0001) %MON dynstat_vvel_mean            =   1.0068376706904E-07
(PID.TID 0000.0001) %MON dynstat_vvel_sd              =   4.4950234543738E-04
(PID.TID 0000.0001) %MON dynstat_vvel_del2            =   1.1954548759490E-06
(PID.TID 0000.0001) %MON dynstat_wvel_max             =   1.3846723384326E-03
(PID.TID 0000.0001) %MON dynstat_wvel_min             =  -1.6990194414958E-03
(PID.TID 0000.0001) %MON dynstat_wvel_mean            =   4.2111537981537E-10
(PID.TID 0000.0001) %MON dynstat_wvel_sd              =   2.2685354726337E-05
(PID.TID 0000.0001) %MON dynstat_wvel_del2            =   9.2822098792699E-08
(PID.TID 0000.0001) %MON dynstat_theta_max            =   1.2000000000000E+00
(PID.TID 0000.0001) %MON dynstat_theta_min            =  -1.0000000000000E+00
(PID.TID 0000.0001) %MON dynstat_theta_mean           =   5.6509556121863E-01
(PID.TID 0000.0001) %MON dynstat_theta_sd             =   8.4892421504974E-01
(PID.TID 0000.0001) %MON dynstat_theta_del2           =   3.3386432163211E-06
(PID.TID 0000.0001) %MON dynstat_salt_max             =   3.4700000000000E+01
(PID.TID 0000.0001) %MON dynstat_salt_min             =   3.4000000000000E+01
(PID.TID 0000.0001) %MON dynstat_salt_mean            =   3.4497952248668E+01
(PID.TID 0000.0001) %MON dynstat_salt_sd              =   2.7010690454072E-01
(PID.TID 0000.0001) %MON dynstat_salt_del2            =   1.3210678693233E-06
(PID.TID 0000.0001) %MON advcfl_uvel_max              =   3.4300111417696E-03
(PID.TID 0000.0001) %MON advcfl_vvel_max              =   2.3404975784573E-03
(PID.TID 0000.0001) %MON advcfl_wvel_max              =   8.4950972074789E-03
(PID.TID 0000.0001) %MON advcfl_W_hf_max              =   8.4950972074789E-03
(PID.TID 0000.0001) %MON pe_b_mean                    =  -6.8194574381602E-01
(PID.TID 0000.0001) %MON ke_max                       =   4.8415465197233E-04
(PID.TID 0000.0001) %MON ke_mean                      =   5.3838261020906E-07
(PID.TID 0000.0001) %MON ke_vol                       =   4.6183073483740E+12
(PID.TID 0000.0001) // =======================================================
(PID.TID 0000.0001) // End MONITOR dynamic field statistics
(PID.TID 0000.0001) // =======================================================
(PID.TID 0000.0001) // =======================================================
(PID.TID 0000.0001) // Begin OBCS MONITOR field statistics
(PID.TID 0000.0001) // =======================================================
(PID.TID 0000.0001) %MON obc_N_vVel_max               =   5.5139236427018E-08
(PID.TID 0000.0001) %MON obc_N_vVel_min               =   5.5139236427016E-08
(PID.TID 0000.0001) %MON obc_N_vVel_mean              =   5.5139236427016E-08
(PID.TID 0000.0001) %MON obc_N_vVel_sd                =   1.6497181950298E-14
(PID.TID 0000.0001) %MON obc_N_vVel_Int               =   3.6391896041831E+00
(PID.TID 0000.0001) // =======================================================
(PID.TID 0000.0001) // End OBCS MONITOR field statistics
(PID.TID 0000.0001) // =======================================================
 cg2d: Sum(rhs),rhsMax =   3.00845588499378E+00  4.53043385284837E+02
(PID.TID 0000.0001)      cg2d_init_res =   3.82625941319873E-06
(PID.TID 0000.0001)      cg2d_iters(min,last) =      -1      75
(PID.TID 0000.0001)      cg2d_last_res =   9.45314961105688E-12
(PID.TID 0000.0001) // =======================================================
(PID.TID 0000.0001) // Begin MONITOR dynamic field statistics
(PID.TID 0000.0001) // =======================================================
(PID.TID 0000.0001) %MON time_tsnumber                =                  1206
(PID.TID 0000.0001) %MON time_secondsf                =   1.2060000000000E+05
(PID.TID 0000.0001) %MON dynstat_eta_max              =   5.7988082555304E+00
(PID.TID 0000.0001) %MON dynstat_eta_min              =  -1.4170536401338E+01
(PID.TID 0000.0001) %MON dynstat_eta_mean             =  -2.5240019233661E+00
(PID.TID 0000.0001) %MON dynstat_eta_sd               =   4.9410566024145E+00
(PID.TID 0000.0001) %MON dynstat_eta_del2             =   1.9058788382894E-01
(PID.TID 0000.0001) %MON dynstat_uvel_max             =   7.4166095335206E-03
(PID.TID 0000.0001) %MON dynstat_uvel_min             =  -3.4373608569298E-02
(PID.TID 0000.0001) %MON dynstat_uvel_mean            =   1.7507669029081E-09
(PID.TID 0000.0001) %MON dynstat_uvel_sd              =   9.4645452602920E-04
(PID.TID 0000.0001) %MON dynstat_uvel_del2            =   1.4493741050282E-06
(PID.TID 0000.0001) %MON dynstat_vvel_max             =   2.3445562914394E-02
(PID.TID 0000.0001) %MON dynstat_vvel_min             =  -8.9249670598319E-03
(PID.TID 0000.0001) %MON dynstat_vvel_mean            =   1.1352338067043E-07
(PID.TID 0000.0001) %MON dynstat_vvel_sd              =   4.5040051772258E-04
(PID.TID 0000.0001) %MON dynstat_vvel_del2            =   1.1979050955828E-06
(PID.TID 0000.0001) %MON dynstat_wvel_max             =   1.3876371721874E-03
(PID.TID 0000.0001) %MON dynstat_wvel_min             =  -1.7034944485374E-03
(PID.TID 0000.0001) %MON dynstat_wvel_mean            =   4.0970976239048E-10
(PID.TID 0000.0001) %MON dynstat_wvel_sd              =   2.2735265106127E-05
(PID.TID 0000.0001) %MON dynstat_wvel_del2            =   9.3034429292440E-08
(PID.TID 0000.0001) %MON dynstat_theta_max            =   1.2000000000000E+00
(PID.TID 0000.0001) %MON dynstat_theta_min            =  -1.0000000000000E+00
(PID.TID 0000.0001) %MON dynstat_theta_mean           =   5.6509480333964E-01
(PID.TID 0000.0001) %MON dynstat_theta_sd             =   8.4892387639262E-01
(PID.TID 0000.0001) %MON dynstat_theta_del2           =   3.3452149915896E-06
(PID.TID 0000.0001) %MON dynstat_salt_max             =   3.4700000000000E+01
(PID.TID 0000.0001) %MON dynstat_salt_min             =   3.4000000000000E+01
(PID.TID 0000.0001) %MON dynstat_salt_mean            =   3.4497951945935E+01
(PID.TID 0000.0001) %MON dynstat_salt_sd              =   2.7010677669107E-01
(PID.TID 0000.0001) %MON dynstat_salt_del2            =   1.3236793652460E-06
(PID.TID 0000.0001) %MON advcfl_uvel_max              =   3.4373608569298E-03
(PID.TID 0000.0001) %MON advcfl_vvel_max              =   2.3445562914394E-03
(PID.TID 0000.0001) %MON advcfl_wvel_max              =   8.5174722426872E-03
(PID.TID 0000.0001) %MON advcfl_W_hf_max              =   8.5174722426872E-03
(PID.TID 0000.0001) %MON pe_b_mean                    =  -6.8194372925155E-01
(PID.TID 0000.0001) %MON ke_max                       =   4.8666317685087E-04
(PID.TID 0000.0001) %MON ke_mean                      =   5.4089578263255E-07
(PID.TID 0000.0001) %MON ke_vol                       =   4.6183073884827E+12
(PID.TID 0000.0001) // =======================================================
(PID.TID 0000.0001) // End MONITOR dynamic field statistics
(PID.TID 0000.0001) // =======================================================
(PID.TID 0000.0001) // =======================================================
(PID.TID 0000.0001) // Begin OBCS MONITOR field statistics
(PID.TID 0000.0001) // =======================================================
(PID.TID 0000.0001) %MON obc_N_vVel_max               =   6.8320321456825E-08
(PID.TID 0000.0001) %MON obc_N_vVel_min               =   6.8320321456823E-08
(PID.TID 0000.0001) %MON obc_N_vVel_mean              =   6.8320321456825E-08
(PID.TID 0000.0001) %MON obc_N_vVel_sd                =  -1.5777218104420E-28
(PID.TID 0000.0001) %MON obc_N_vVel_Int               =   4.5091412161505E+00
(PID.TID 0000.0001) // =======================================================
(PID.TID 0000.0001) // End OBCS MONITOR field statistics
(PID.TID 0000.0001) // =======================================================
 cg2d: Sum(rhs),rhsMax =   3.00844789585736E+00  4.53043377105141E+02
(PID.TID 0000.0001)      cg2d_init_res =   3.83252122337324E-06
(PID.TID 0000.0001)      cg2d_iters(min,last) =      -1      75
(PID.TID 0000.0001)      cg2d_last_res =   9.47007553434793E-12
(PID.TID 0000.0001) // =======================================================
(PID.TID 0000.0001) // Begin MONITOR dynamic field statistics
(PID.TID 0000.0001) // =======================================================
(PID.TID 0000.0001) %MON time_tsnumber                =                  1207
(PID.TID 0000.0001) %MON time_secondsf                =   1.2070000000000E+05
(PID.TID 0000.0001) %MON dynstat_eta_max              =   5.7988108549570E+00
(PID.TID 0000.0001) %MON dynstat_eta_min              =  -1.4170522100378E+01
(PID.TID 0000.0001) %MON dynstat_eta_mean             =  -2.5239951751557E+00
(PID.TID 0000.0001) %MON dynstat_eta_sd               =   4.9410546784799E+00
(PID.TID 0000.0001) %MON dynstat_eta_del2             =   1.9058790445259E-01
(PID.TID 0000.0001) %MON dynstat_uvel_max             =   7.4344278815843E-03
(PID.TID 0000.0001) %MON dynstat_uvel_min             =  -3.4447159182580E-02
(PID.TID 0000.0001) %MON dynstat_uvel_mean            =   1.8174051193533E-09
(PID.TID 0000.0001) %MON dynstat_uvel_sd              =   9.4873297845283E-04
(PID.TID 0000.0001) %MON dynstat_uvel_del2            =   1.4528919216805E-06
(PID.TID 0000.0001) %MON dynstat_vvel_max             =   2.3486168110295E-02
(PID.TID 0000.0001) %MON dynstat_vvel_min             =  -8.9443994811440E-03
(PID.TID 0000.0001) %MON dynstat_vvel_mean            =   1.2500781879669E-07
(PID.TID 0000.0001) %MON dynstat_vvel_sd              =   4.5129988733425E-04
(PID.TID 0000.0001) %MON dynstat_vvel_del2            =   1.2003555572564E-06
(PID.TID 0000.0001) %MON dynstat_wvel_max             =   1.3906052303458E-03
(PID.TID 0000.0001) %MON dynstat_wvel_min             =  -1.7079753539251E-03
(PID.TID 0000.0001) %MON dynstat_wvel_mean            =   3.9730359726371E-10
(PID.TID 0000.0001) %MON dynstat_wvel_sd              =   2.2782867640019E-05
(PID.TID 0000.0001) %MON dynstat_wvel_del2            =   9.3235417011272E-08
(PID.TID 0000.0001) %MON dynstat_theta_max            =   1.2000000000000E+00
(PID.TID 0000.0001) %MON dynstat_theta_min            =  -1.0000000000000E+00
(PID.TID 0000.0001) %MON dynstat_theta_mean           =   5.6509404414844E-01
(PID.TID 0000.0001) %MON dynstat_theta_sd             =   8.4892353706873E-01
(PID.TID 0000.0001) %MON dynstat_theta_del2           =   3.3518004516228E-06
(PID.TID 0000.0001) %MON dynstat_salt_max             =   3.4700000000000E+01
(PID.TID 0000.0001) %MON dynstat_salt_min             =   3.4000000000000E+01
(PID.TID 0000.0001) %MON dynstat_salt_mean            =   3.4497951642675E+01
(PID.TID 0000.0001) %MON dynstat_salt_sd              =   2.7010664858768E-01
(PID.TID 0000.0001) %MON dynstat_salt_del2            =   1.3262956312432E-06
(PID.TID 0000.0001) %MON advcfl_uvel_max              =   3.4447159182580E-03
(PID.TID 0000.0001) %MON advcfl_vvel_max              =   2.3486168110295E-03
(PID.TID 0000.0001) %MON advcfl_wvel_max              =   8.5398767696257E-03
(PID.TID 0000.0001) %MON advcfl_W_hf_max              =   8.5398767696257E-03
(PID.TID 0000.0001) %MON pe_b_mean                    =  -6.8194171336289E-01
(PID.TID 0000.0001) %MON ke_max                       =   4.8918264609548E-04
(PID.TID 0000.0001) %MON ke_mean                      =   5.4341971379585E-07
(PID.TID 0000.0001) %MON ke_vol                       =   4.6183074285752E+12
(PID.TID 0000.0001) // =======================================================
(PID.TID 0000.0001) // End MONITOR dynamic field statistics
(PID.TID 0000.0001) // =======================================================
(PID.TID 0000.0001) // =======================================================
(PID.TID 0000.0001) // Begin OBCS MONITOR field statistics
(PID.TID 0000.0001) // =======================================================
(PID.TID 0000.0001) %MON obc_N_vVel_max               =   8.0308820754653E-08
(PID.TID 0000.0001) %MON obc_N_vVel_min               =   8.0308820754651E-08
(PID.TID 0000.0001) %MON obc_N_vVel_mean              =   8.0308820754651E-08
(PID.TID 0000.0001) %MON obc_N_vVel_sd                =   2.4356177875976E-14
(PID.TID 0000.0001) %MON obc_N_vVel_Int               =   5.3003821698069E+00
(PID.TID 0000.0001) // =======================================================
(PID.TID 0000.0001) // End OBCS MONITOR field statistics
(PID.TID 0000.0001) // =======================================================
 cg2d: Sum(rhs),rhsMax =   3.00843990740218E+00  4.53043368794454E+02
(PID.TID 0000.0001)      cg2d_init_res =   3.83885032840877E-06
(PID.TID 0000.0001)      cg2d_iters(min,last) =      -1      75
(PID.TID 0000.0001)      cg2d_last_res =   9.48744012497495E-12
(PID.TID 0000.0001) // =======================================================
(PID.TID 0000.0001) // Begin MONITOR dynamic field statistics
(PID.TID 0000.0001) // =======================================================
(PID.TID 0000.0001) %MON time_tsnumber                =                  1208
(PID.TID 0000.0001) %MON time_secondsf                =   1.2080000000000E+05
(PID.TID 0000.0001) %MON dynstat_eta_max              =   5.7988134383612E+00
(PID.TID 0000.0001) %MON dynstat_eta_min              =  -1.4170507794730E+01
(PID.TID 0000.0001) %MON dynstat_eta_mean             =  -2.5239884267873E+00
(PID.TID 0000.0001) %MON dynstat_eta_sd               =   4.9410527535437E+00
(PID.TID 0000.0001) %MON dynstat_eta_del2             =   1.9058792511736E-01
(PID.TID 0000.0001) %MON dynstat_uvel_max             =   7.4522803895416E-03
(PID.TID 0000.0001) %MON dynstat_uvel_min             =  -3.4520762928153E-02
(PID.TID 0000.0001) %MON dynstat_uvel_mean            =   1.8907596031591E-09
(PID.TID 0000.0001) %MON dynstat_uvel_sd              =   9.5101610174514E-04
(PID.TID 0000.0001) %MON dynstat_uvel_del2            =   1.4564178119680E-06
(PID.TID 0000.0001) %MON dynstat_vvel_max             =   2.3526791249219E-02
(PID.TID 0000.0001) %MON dynstat_vvel_min             =  -8.9638534143783E-03
(PID.TID 0000.0001) %MON dynstat_vvel_mean            =   1.3497541170080E-07
(PID.TID 0000.0001) %MON dynstat_vvel_sd              =   4.5220047879209E-04
(PID.TID 0000.0001) %MON dynstat_vvel_del2            =   1.2028060147979E-06
(PID.TID 0000.0001) %MON dynstat_wvel_max             =   1.3935765117621E-03
(PID.TID 0000.0001) %MON dynstat_wvel_min             =  -1.7124621256294E-03
(PID.TID 0000.0001) %MON dynstat_wvel_mean            =   3.8409713589984E-10
(PID.TID 0000.0001) %MON dynstat_wvel_sd              =   2.2828275037530E-05
(PID.TID 0000.0001) %MON dynstat_wvel_del2            =   9.3423983128632E-08
(PID.TID 0000.0001) %MON dynstat_theta_max            =   1.2000000000000E+00
(PID.TID 0000.0001) %MON dynstat_theta_min            =  -1.0000000000000E+00
(PID.TID 0000.0001) %MON dynstat_theta_mean           =   5.6509328364205E-01
(PID.TID 0000.0001) %MON dynstat_theta_sd             =   8.4892319708067E-01
(PID.TID 0000.0001) %MON dynstat_theta_del2           =   3.3583998189143E-06
(PID.TID 0000.0001) %MON dynstat_salt_max             =   3.4700000000000E+01
(PID.TID 0000.0001) %MON dynstat_salt_min             =   3.4000000000000E+01
(PID.TID 0000.0001) %MON dynstat_salt_mean            =   3.4497951338889E+01
(PID.TID 0000.0001) %MON dynstat_salt_sd              =   2.7010652023124E-01
(PID.TID 0000.0001) %MON dynstat_salt_del2            =   1.3289167998826E-06
(PID.TID 0000.0001) %MON advcfl_uvel_max              =   3.4520762928153E-03
(PID.TID 0000.0001) %MON advcfl_vvel_max              =   2.3526791249219E-03
(PID.TID 0000.0001) %MON advcfl_wvel_max              =   8.5623106281469E-03
(PID.TID 0000.0001) %MON advcfl_W_hf_max              =   8.5623106281469E-03
(PID.TID 0000.0001) %MON pe_b_mean                    =  -6.8193969580922E-01
(PID.TID 0000.0001) %MON ke_max                       =   4.9171309882583E-04
(PID.TID 0000.0001) %MON ke_mean                      =   5.4595445854523E-07
(PID.TID 0000.0001) %MON ke_vol                       =   4.6183074686596E+12
(PID.TID 0000.0001) // =======================================================
(PID.TID 0000.0001) // End MONITOR dynamic field statistics
(PID.TID 0000.0001) // =======================================================
(PID.TID 0000.0001) // =======================================================
(PID.TID 0000.0001) // Begin OBCS MONITOR field statistics
(PID.TID 0000.0001) // =======================================================
(PID.TID 0000.0001) %MON obc_N_vVel_max               =   9.0933844180646E-08
(PID.TID 0000.0001) %MON obc_N_vVel_min               =   9.0933844180646E-08
(PID.TID 0000.0001) %MON obc_N_vVel_mean              =   9.0933844180646E-08
(PID.TID 0000.0001) %MON obc_N_vVel_sd                =  -5.8375706986355E-29
(PID.TID 0000.0001) %MON obc_N_vVel_Int               =   6.0016337159227E+00
(PID.TID 0000.0001) // =======================================================
(PID.TID 0000.0001) // End OBCS MONITOR field statistics
(PID.TID 0000.0001) // =======================================================
 cg2d: Sum(rhs),rhsMax =   3.00843191819656E+00  4.53043360263365E+02
(PID.TID 0000.0001)      cg2d_init_res =   3.84524813990625E-06
(PID.TID 0000.0001)      cg2d_iters(min,last) =      -1      75
(PID.TID 0000.0001)      cg2d_last_res =   9.50528063019445E-12
(PID.TID 0000.0001) // =======================================================
(PID.TID 0000.0001) // Begin MONITOR dynamic field statistics
(PID.TID 0000.0001) // =======================================================
(PID.TID 0000.0001) %MON time_tsnumber                =                  1209
(PID.TID 0000.0001) %MON time_secondsf                =   1.2090000000000E+05
(PID.TID 0000.0001) %MON dynstat_eta_max              =   5.7988160086796E+00
(PID.TID 0000.0001) %MON dynstat_eta_min              =  -1.4170493480967E+01
(PID.TID 0000.0001) %MON dynstat_eta_mean             =  -2.5239816765617E+00
(PID.TID 0000.0001) %MON dynstat_eta_sd               =   4.9410508269192E+00
(PID.TID 0000.0001) %MON dynstat_eta_del2             =   1.9058794582145E-01
(PID.TID 0000.0001) %MON dynstat_uvel_max             =   7.4701670471233E-03
(PID.TID 0000.0001) %MON dynstat_uvel_min             =  -3.4594419477407E-02
(PID.TID 0000.0001) %MON dynstat_uvel_mean            =   1.9698380445399E-09
(PID.TID 0000.0001) %MON dynstat_uvel_sd              =   9.5330390587460E-04
(PID.TID 0000.0001) %MON dynstat_uvel_del2            =   1.4599517893964E-06
(PID.TID 0000.0001) %MON dynstat_vvel_max             =   2.3567432211300E-02
(PID.TID 0000.0001) %MON dynstat_vvel_min             =  -8.9833288020258E-03
(PID.TID 0000.0001) %MON dynstat_vvel_mean            =   1.4328866739706E-07
(PID.TID 0000.0001) %MON dynstat_vvel_sd              =   4.5310234952521E-04
(PID.TID 0000.0001) %MON dynstat_vvel_del2            =   1.2052564444238E-06
(PID.TID 0000.0001) %MON dynstat_wvel_max             =   1.3965510151994E-03
(PID.TID 0000.0001) %MON dynstat_wvel_min             =  -1.7169547315626E-03
(PID.TID 0000.0001) %MON dynstat_wvel_mean            =   3.7030209361381E-10
(PID.TID 0000.0001) %MON dynstat_wvel_sd              =   2.2871743844806E-05
(PID.TID 0000.0001) %MON dynstat_wvel_del2            =   9.3599882931042E-08
(PID.TID 0000.0001) %MON dynstat_theta_max            =   1.2000000000000E+00
(PID.TID 0000.0001) %MON dynstat_theta_min            =  -1.0000000000000E+00
(PID.TID 0000.0001) %MON dynstat_theta_mean           =   5.6509252181742E-01
(PID.TID 0000.0001) %MON dynstat_theta_sd             =   8.4892285642920E-01
(PID.TID 0000.0001) %MON dynstat_theta_del2           =   3.3650134193633E-06
(PID.TID 0000.0001) %MON dynstat_salt_max             =   3.4700000000000E+01
(PID.TID 0000.0001) %MON dynstat_salt_min             =   3.4000000000000E+01
(PID.TID 0000.0001) %MON dynstat_salt_mean            =   3.4497951034574E+01
(PID.TID 0000.0001) %MON dynstat_salt_sd              =   2.7010639162199E-01
(PID.TID 0000.0001) %MON dynstat_salt_del2            =   1.3315429223804E-06
(PID.TID 0000.0001) %MON advcfl_uvel_max              =   3.4594419477407E-03
(PID.TID 0000.0001) %MON advcfl_vvel_max              =   2.3567432211300E-03
(PID.TID 0000.0001) %MON advcfl_wvel_max              =   8.5847736578129E-03
(PID.TID 0000.0001) %MON advcfl_W_hf_max              =   8.5847736578129E-03
(PID.TID 0000.0001) %MON pe_b_mean                    =  -6.8193767622168E-01
(PID.TID 0000.0001) %MON ke_max                       =   4.9425457431262E-04
(PID.TID 0000.0001) %MON ke_mean                      =   5.4850008685295E-07
(PID.TID 0000.0001) %MON ke_vol                       =   4.6183075087449E+12
(PID.TID 0000.0001) // =======================================================
(PID.TID 0000.0001) // End MONITOR dynamic field statistics
(PID.TID 0000.0001) // =======================================================
(PID.TID 0000.0001) // =======================================================
(PID.TID 0000.0001) // Begin OBCS MONITOR field statistics
(PID.TID 0000.0001) // =======================================================
(PID.TID 0000.0001) %MON obc_N_vVel_max               =   1.0004636209419E-07
(PID.TID 0000.0001) %MON obc_N_vVel_min               =   1.0004636209419E-07
(PID.TID 0000.0001) %MON obc_N_vVel_mean              =   1.0004636209419E-07
(PID.TID 0000.0001) %MON obc_N_vVel_sd                =  -6.4213277684990E-28
(PID.TID 0000.0001) %MON obc_N_vVel_Int               =   6.6030598982166E+00
(PID.TID 0000.0001) // =======================================================
(PID.TID 0000.0001) // End OBCS MONITOR field statistics
(PID.TID 0000.0001) // =======================================================
 cg2d: Sum(rhs),rhsMax =   3.00842392661980E+00  4.53043351425996E+02
(PID.TID 0000.0001)      cg2d_init_res =   3.85171888112520E-06
(PID.TID 0000.0001)      cg2d_iters(min,last) =      -1      75
(PID.TID 0000.0001)      cg2d_last_res =   9.52362913296487E-12
(PID.TID 0000.0001) // =======================================================
(PID.TID 0000.0001) // Begin MONITOR dynamic field statistics
(PID.TID 0000.0001) // =======================================================
(PID.TID 0000.0001) %MON time_tsnumber                =                  1210
(PID.TID 0000.0001) %MON time_secondsf                =   1.2100000000000E+05
(PID.TID 0000.0001) %MON dynstat_eta_max              =   5.7988185690340E+00
(PID.TID 0000.0001) %MON dynstat_eta_min              =  -1.4170479155440E+01
(PID.TID 0000.0001) %MON dynstat_eta_mean             =  -2.5239749226407E+00
(PID.TID 0000.0001) %MON dynstat_eta_sd               =   4.9410488978977E+00
(PID.TID 0000.0001) %MON dynstat_eta_del2             =   1.9058796656299E-01
(PID.TID 0000.0001) %MON dynstat_uvel_max             =   7.4880878428090E-03
(PID.TID 0000.0001) %MON dynstat_uvel_min             =  -3.4668128502648E-02
(PID.TID 0000.0001) %MON dynstat_uvel_mean            =   2.0535606763749E-09
(PID.TID 0000.0001) %MON dynstat_uvel_sd              =   9.5559640077288E-04
(PID.TID 0000.0001) %MON dynstat_uvel_del2            =   1.4634938665006E-06
(PID.TID 0000.0001) %MON dynstat_vvel_max             =   2.3608090880106E-02
(PID.TID 0000.0001) %MON dynstat_vvel_min             =  -9.0028255814543E-03
(PID.TID 0000.0001) %MON dynstat_vvel_mean            =   1.4983631799371E-07
(PID.TID 0000.0001) %MON dynstat_vvel_sd              =   4.5400558564716E-04
(PID.TID 0000.0001) %MON dynstat_vvel_del2            =   1.2077070383560E-06
(PID.TID 0000.0001) %MON dynstat_wvel_max             =   1.3995287393059E-03
(PID.TID 0000.0001) %MON dynstat_wvel_min             =  -1.7214531395054E-03
(PID.TID 0000.0001) %MON dynstat_wvel_mean            =   3.5613847510090E-10
(PID.TID 0000.0001) %MON dynstat_wvel_sd              =   2.2913656281938E-05
(PID.TID 0000.0001) %MON dynstat_wvel_del2            =   9.3763707904114E-08
(PID.TID 0000.0001) %MON dynstat_theta_max            =   1.2000000000000E+00
(PID.TID 0000.0001) %MON dynstat_theta_min            =  -1.0000000000000E+00
(PID.TID 0000.0001) %MON dynstat_theta_mean           =   5.6509175867143E-01
(PID.TID 0000.0001) %MON dynstat_theta_sd             =   8.4892251511466E-01
(PID.TID 0000.0001) %MON dynstat_theta_del2           =   3.3716411366241E-06
(PID.TID 0000.0001) %MON dynstat_salt_max             =   3.4700000000000E+01
(PID.TID 0000.0001) %MON dynstat_salt_min             =   3.4000000000000E+01
(PID.TID 0000.0001) %MON dynstat_salt_mean            =   3.4497950729729E+01
(PID.TID 0000.0001) %MON dynstat_salt_sd              =   2.7010626275988E-01
(PID.TID 0000.0001) %MON dynstat_salt_del2            =   1.3341739699568E-06
(PID.TID 0000.0001) %MON advcfl_uvel_max              =   3.4668128502648E-03
(PID.TID 0000.0001) %MON advcfl_vvel_max              =   2.3608090880106E-03
(PID.TID 0000.0001) %MON advcfl_wvel_max              =   8.6072656975271E-03
(PID.TID 0000.0001) %MON advcfl_W_hf_max              =   8.6072656975271E-03
(PID.TID 0000.0001) %MON pe_b_mean                    =  -6.8193565420917E-01
(PID.TID 0000.0001) %MON ke_max                       =   4.9680711197876E-04
(PID.TID 0000.0001) %MON ke_mean                      =   5.5105668205221E-07
(PID.TID 0000.0001) %MON ke_vol                       =   4.6183075488412E+12
(PID.TID 0000.0001) // =======================================================
(PID.TID 0000.0001) // End MONITOR dynamic field statistics
(PID.TID 0000.0001) // =======================================================
(PID.TID 0000.0001) // =======================================================
(PID.TID 0000.0001) // Begin OBCS MONITOR field statistics
(PID.TID 0000.0001) // =======================================================
(PID.TID 0000.0001) %MON obc_N_vVel_max               =   1.0752142292006E-07
(PID.TID 0000.0001) %MON obc_N_vVel_min               =   1.0752142292006E-07
(PID.TID 0000.0001) %MON obc_N_vVel_mean              =   1.0752142292006E-07
(PID.TID 0000.0001) %MON obc_N_vVel_sd                =   3.5057742230987E-14
(PID.TID 0000.0001) %MON obc_N_vVel_Int               =   7.0964139127240E+00
(PID.TID 0000.0001) // =======================================================
(PID.TID 0000.0001) // End OBCS MONITOR field statistics
(PID.TID 0000.0001) // =======================================================
 cg2d: Sum(rhs),rhsMax =   3.00841593088671E+00  4.53043342201318E+02
(PID.TID 0000.0001)      cg2d_init_res =   3.85827250794790E-06
(PID.TID 0000.0001)      cg2d_iters(min,last) =      -1      75
(PID.TID 0000.0001)      cg2d_last_res =   9.54248496150015E-12
(PID.TID 0000.0001) // =======================================================
(PID.TID 0000.0001) // Begin MONITOR dynamic field statistics
(PID.TID 0000.0001) // =======================================================
(PID.TID 0000.0001) %MON time_tsnumber                =                  1211
(PID.TID 0000.0001) %MON time_secondsf                =   1.2110000000000E+05
(PID.TID 0000.0001) %MON dynstat_eta_max              =   5.7988211226849E+00
(PID.TID 0000.0001) %MON dynstat_eta_min              =  -1.4170464814356E+01
(PID.TID 0000.0001) %MON dynstat_eta_mean             =  -2.5239681630752E+00
(PID.TID 0000.0001) %MON dynstat_eta_sd               =   4.9410469657597E+00
(PID.TID 0000.0001) %MON dynstat_eta_del2             =   1.9058798734012E-01
(PID.TID 0000.0001) %MON dynstat_uvel_max             =   7.5060427639757E-03
(PID.TID 0000.0001) %MON dynstat_uvel_min             =  -3.4741889676978E-02
(PID.TID 0000.0001) %MON dynstat_uvel_mean            =   2.1407769696642E-09
(PID.TID 0000.0001) %MON dynstat_uvel_sd              =   9.5789359633926E-04
(PID.TID 0000.0001) %MON dynstat_uvel_del2            =   1.4670440549829E-06
(PID.TID 0000.0001) %MON dynstat_vvel_max             =   2.3648767142911E-02
(PID.TID 0000.0001) %MON dynstat_vvel_min             =  -9.0223436845913E-03
(PID.TID 0000.0001) %MON dynstat_vvel_mean            =   1.5453494683649E-07
(PID.TID 0000.0001) %MON dynstat_vvel_sd              =   4.5491029598517E-04
(PID.TID 0000.0001) %MON dynstat_vvel_del2            =   1.2101581850119E-06
(PID.TID 0000.0001) %MON dynstat_wvel_max             =   1.4025096826235E-03
(PID.TID 0000.0001) %MON dynstat_wvel_min             =  -1.7259573172125E-03
(PID.TID 0000.0001) %MON dynstat_wvel_mean            =   3.4183105437440E-10
(PID.TID 0000.0001) %MON dynstat_wvel_sd              =   2.2954494515041E-05
(PID.TID 0000.0001) %MON dynstat_wvel_del2            =   9.3916836443211E-08
(PID.TID 0000.0001) %MON dynstat_theta_max            =   1.2000000000000E+00
(PID.TID 0000.0001) %MON dynstat_theta_min            =  -1.0000000000000E+00
(PID.TID 0000.0001) %MON dynstat_theta_mean           =   5.6509099420080E-01
(PID.TID 0000.0001) %MON dynstat_theta_sd             =   8.4892217313696E-01
(PID.TID 0000.0001) %MON dynstat_theta_del2           =   3.3782824969650E-06
(PID.TID 0000.0001) %MON dynstat_salt_max             =   3.4700000000000E+01
(PID.TID 0000.0001) %MON dynstat_salt_min             =   3.4000000000000E+01
(PID.TID 0000.0001) %MON dynstat_salt_mean            =   3.4497950424353E+01
(PID.TID 0000.0001) %MON dynstat_salt_sd              =   2.7010613364493E-01
(PID.TID 0000.0001) %MON dynstat_salt_del2            =   1.3368098408875E-06
(PID.TID 0000.0001) %MON advcfl_uvel_max              =   3.4741889676978E-03
(PID.TID 0000.0001) %MON advcfl_vvel_max              =   2.3648767142911E-03
(PID.TID 0000.0001) %MON advcfl_wvel_max              =   8.6297865860626E-03
(PID.TID 0000.0001) %MON advcfl_W_hf_max              =   8.6297865860626E-03
(PID.TID 0000.0001) %MON pe_b_mean                    =  -6.8193362936422E-01
(PID.TID 0000.0001) %MON ke_max                       =   4.9937075139750E-04
(PID.TID 0000.0001) %MON ke_mean                      =   5.5362433825874E-07
(PID.TID 0000.0001) %MON ke_vol                       =   4.6183075889595E+12
(PID.TID 0000.0001) // =======================================================
(PID.TID 0000.0001) // End MONITOR dynamic field statistics
(PID.TID 0000.0001) // =======================================================
(PID.TID 0000.0001) // =======================================================
(PID.TID 0000.0001) // Begin OBCS MONITOR field statistics
(PID.TID 0000.0001) // =======================================================
(PID.TID 0000.0001) %MON obc_N_vVel_max               =   1.1325999330512E-07
(PID.TID 0000.0001) %MON obc_N_vVel_min               =   1.1325999330511E-07
(PID.TID 0000.0001) %MON obc_N_vVel_mean              =   1.1325999330511E-07
(PID.TID 0000.0001) %MON obc_N_vVel_sd                =   2.4549739949516E-14
(PID.TID 0000.0001) %MON obc_N_vVel_Int               =   7.4751595581376E+00
(PID.TID 0000.0001) // =======================================================
(PID.TID 0000.0001) // End OBCS MONITOR field statistics
(PID.TID 0000.0001) // =======================================================
 cg2d: Sum(rhs),rhsMax =   3.00840792907764E+00  4.53043332514323E+02
(PID.TID 0000.0001)      cg2d_init_res =   3.86492682768126E-06
(PID.TID 0000.0001)      cg2d_iters(min,last) =      -1      75
(PID.TID 0000.0001)      cg2d_last_res =   9.56188200504888E-12
(PID.TID 0000.0001) // =======================================================
(PID.TID 0000.0001) // Begin MONITOR dynamic field statistics
(PID.TID 0000.0001) // =======================================================
(PID.TID 0000.0001) %MON time_tsnumber                =                  1212
(PID.TID 0000.0001) %MON time_secondsf                =   1.2120000000000E+05
(PID.TID 0000.0001) %MON dynstat_eta_max              =   5.7988236729766E+00
(PID.TID 0000.0001) %MON dynstat_eta_min              =  -1.4170450453811E+01
(PID.TID 0000.0001) %MON dynstat_eta_mean             =  -2.5239613958368E+00
(PID.TID 0000.0001) %MON dynstat_eta_sd               =   4.9410450297866E+00
(PID.TID 0000.0001) %MON dynstat_eta_del2             =   1.9058800815106E-01
(PID.TID 0000.0001) %MON dynstat_uvel_max             =   7.5240317968444E-03
(PID.TID 0000.0001) %MON dynstat_uvel_min             =  -3.4815702674165E-02
(PID.TID 0000.0001) %MON dynstat_uvel_mean            =   2.2302819805604E-09
(PID.TID 0000.0001) %MON dynstat_uvel_sd              =   9.6019550244563E-04
(PID.TID 0000.0001) %MON dynstat_uvel_del2            =   1.4706023657946E-06
(PID.TID 0000.0001) %MON dynstat_vvel_max             =   2.3689460890862E-02
(PID.TID 0000.0001) %MON dynstat_vvel_min             =  -9.0418830377295E-03
(PID.TID 0000.0001) %MON dynstat_vvel_mean            =   1.5733017416411E-07
(PID.TID 0000.0001) %MON dynstat_vvel_sd              =   4.5581660478003E-04
(PID.TID 0000.0001) %MON dynstat_vvel_del2            =   1.2126104375507E-06
(PID.TID 0000.0001) %MON dynstat_wvel_max             =   1.4054938435914E-03
(PID.TID 0000.0001) %MON dynstat_wvel_min             =  -1.7304672323848E-03
(PID.TID 0000.0001) %MON dynstat_wvel_mean            =   3.2760600507812E-10
(PID.TID 0000.0001) %MON dynstat_wvel_sd              =   2.2994808877395E-05
(PID.TID 0000.0001) %MON dynstat_wvel_del2            =   9.4061335176351E-08
(PID.TID 0000.0001) %MON dynstat_theta_max            =   1.2000000000000E+00
(PID.TID 0000.0001) %MON dynstat_theta_min            =  -1.0000000000000E+00
(PID.TID 0000.0001) %MON dynstat_theta_mean           =   5.6509022840226E-01
(PID.TID 0000.0001) %MON dynstat_theta_sd             =   8.4892183049675E-01
(PID.TID 0000.0001) %MON dynstat_theta_del2           =   3.3849367583503E-06
(PID.TID 0000.0001) %MON dynstat_salt_max             =   3.4700000000000E+01
(PID.TID 0000.0001) %MON dynstat_salt_min             =   3.4000000000000E+01
(PID.TID 0000.0001) %MON dynstat_salt_mean            =   3.4497950118445E+01
(PID.TID 0000.0001) %MON dynstat_salt_sd              =   2.7010600427714E-01
(PID.TID 0000.0001) %MON dynstat_salt_del2            =   1.3394503759690E-06
(PID.TID 0000.0001) %MON advcfl_uvel_max              =   3.4815702674165E-03
(PID.TID 0000.0001) %MON advcfl_vvel_max              =   2.3689460890862E-03
(PID.TID 0000.0001) %MON advcfl_wvel_max              =   8.6523361619239E-03
(PID.TID 0000.0001) %MON advcfl_W_hf_max              =   8.6523361619239E-03
(PID.TID 0000.0001) %MON pe_b_mean                    =  -6.8193160126953E-01
(PID.TID 0000.0001) %MON ke_max                       =   5.0194553229221E-04
(PID.TID 0000.0001) %MON ke_mean                      =   5.5620315715535E-07
(PID.TID 0000.0001) %MON ke_vol                       =   4.6183076291113E+12
(PID.TID 0000.0001) // =======================================================
(PID.TID 0000.0001) // End MONITOR dynamic field statistics
(PID.TID 0000.0001) // =======================================================
(PID.TID 0000.0001) // =======================================================
(PID.TID 0000.0001) // Begin OBCS MONITOR field statistics
(PID.TID 0000.0001) // =======================================================
(PID.TID 0000.0001) %MON obc_N_vVel_max               =   1.1719038551311E-07
(PID.TID 0000.0001) %MON obc_N_vVel_min               =   1.1719038551310E-07
(PID.TID 0000.0001) %MON obc_N_vVel_mean              =   1.1719038551310E-07
(PID.TID 0000.0001) %MON obc_N_vVel_sd                =   2.3398065480364E-14
(PID.TID 0000.0001) %MON obc_N_vVel_Int               =   7.7345654438649E+00
(PID.TID 0000.0001) // =======================================================
(PID.TID 0000.0001) // End OBCS MONITOR field statistics
(PID.TID 0000.0001) // =======================================================
 cg2d: Sum(rhs),rhsMax =   3.00839991916893E+00  4.53043322296925E+02
(PID.TID 0000.0001)      cg2d_init_res =   3.87170289448381E-06
(PID.TID 0000.0001)      cg2d_iters(min,last) =      -1      75
(PID.TID 0000.0001)      cg2d_last_res =   9.58184687713518E-12
(PID.TID 0000.0001) // =======================================================
(PID.TID 0000.0001) // Begin MONITOR dynamic field statistics
(PID.TID 0000.0001) // =======================================================
(PID.TID 0000.0001) %MON time_tsnumber                =                  1213
(PID.TID 0000.0001) %MON time_secondsf                =   1.2130000000000E+05
(PID.TID 0000.0001) %MON dynstat_eta_max              =   5.7988262232873E+00
(PID.TID 0000.0001) %MON dynstat_eta_min              =  -1.4170436069876E+01
(PID.TID 0000.0001) %MON dynstat_eta_mean             =  -2.5239546188483E+00
(PID.TID 0000.0001) %MON dynstat_eta_sd               =   4.9410430892714E+00
(PID.TID 0000.0001) %MON dynstat_eta_del2             =   1.9058802899409E-01
(PID.TID 0000.0001) %MON dynstat_uvel_max             =   7.5420549263558E-03
(PID.TID 0000.0001) %MON dynstat_uvel_min             =  -3.4889567168721E-02
(PID.TID 0000.0001) %MON dynstat_uvel_mean            =   2.3208361511745E-09
(PID.TID 0000.0001) %MON dynstat_uvel_sd              =   9.6250212894338E-04
(PID.TID 0000.0001) %MON dynstat_uvel_del2            =   1.4741688092457E-06
(PID.TID 0000.0001) %MON dynstat_vvel_max             =   2.3730172019059E-02
(PID.TID 0000.0001) %MON dynstat_vvel_min             =  -9.0614435614802E-03
(PID.TID 0000.0001) %MON dynstat_vvel_mean            =   1.5819738706444E-07
(PID.TID 0000.0001) %MON dynstat_vvel_sd              =   4.5672464353064E-04
(PID.TID 0000.0001) %MON dynstat_vvel_del2            =   1.2150644726672E-06
(PID.TID 0000.0001) %MON dynstat_wvel_max             =   1.4084812205125E-03
(PID.TID 0000.0001) %MON dynstat_wvel_min             =  -1.7349828526699E-03
(PID.TID 0000.0001) %MON dynstat_wvel_mean            =   3.1368745463784E-10
(PID.TID 0000.0001) %MON dynstat_wvel_sd              =   2.3035181946255E-05
(PID.TID 0000.0001) %MON dynstat_wvel_del2            =   9.4199815950005E-08
(PID.TID 0000.0001) %MON dynstat_theta_max            =   1.2000000000000E+00
(PID.TID 0000.0001) %MON dynstat_theta_min            =  -1.0000000000000E+00
(PID.TID 0000.0001) %MON dynstat_theta_mean           =   5.6508946127246E-01
(PID.TID 0000.0001) %MON dynstat_theta_sd             =   8.4892148719446E-01
(PID.TID 0000.0001) %MON dynstat_theta_del2           =   3.3916049139904E-06
(PID.TID 0000.0001) %MON dynstat_salt_max             =   3.4700000000000E+01
(PID.TID 0000.0001) %MON dynstat_salt_min             =   3.4000000000000E+01
(PID.TID 0000.0001) %MON dynstat_salt_mean            =   3.4497949812004E+01
(PID.TID 0000.0001) %MON dynstat_salt_sd              =   2.7010587465659E-01
(PID.TID 0000.0001) %MON dynstat_salt_del2            =   1.3420953924089E-06
(PID.TID 0000.0001) %MON advcfl_uvel_max              =   3.4889567168721E-03
(PID.TID 0000.0001) %MON advcfl_vvel_max              =   2.3730172019059E-03
(PID.TID 0000.0001) %MON advcfl_wvel_max              =   8.6749142633495E-03
(PID.TID 0000.0001) %MON advcfl_W_hf_max              =   8.6749142633495E-03
(PID.TID 0000.0001) %MON pe_b_mean                    =  -6.8192956950421E-01
(PID.TID 0000.0001) %MON ke_max                       =   5.0453149453134E-04
(PID.TID 0000.0001) %MON ke_mean                      =   5.5879324434729E-07
(PID.TID 0000.0001) %MON ke_vol                       =   4.6183076693087E+12
(PID.TID 0000.0001) // =======================================================
(PID.TID 0000.0001) // End MONITOR dynamic field statistics
(PID.TID 0000.0001) // =======================================================
(PID.TID 0000.0001) // =======================================================
(PID.TID 0000.0001) // Begin OBCS MONITOR field statistics
(PID.TID 0000.0001) // =======================================================
(PID.TID 0000.0001) %MON obc_N_vVel_max               =   1.1926925882930E-07
(PID.TID 0000.0001) %MON obc_N_vVel_min               =   1.1926925882930E-07
(PID.TID 0000.0001) %MON obc_N_vVel_mean              =   1.1926925882930E-07
(PID.TID 0000.0001) %MON obc_N_vVel_sd                =   7.9441092903913E-15
(PID.TID 0000.0001) %MON obc_N_vVel_Int               =   7.8717710827337E+00
(PID.TID 0000.0001) // =======================================================
(PID.TID 0000.0001) // End OBCS MONITOR field statistics
(PID.TID 0000.0001) // =======================================================
 cg2d: Sum(rhs),rhsMax =   3.00839189906338E+00  4.53043311489143E+02
(PID.TID 0000.0001)      cg2d_init_res =   3.87860099874671E-06
(PID.TID 0000.0001)      cg2d_iters(min,last) =      -1      75
(PID.TID 0000.0001)      cg2d_last_res =   9.60231928480396E-12
(PID.TID 0000.0001) // =======================================================
(PID.TID 0000.0001) // Begin MONITOR dynamic field statistics
(PID.TID 0000.0001) // =======================================================
(PID.TID 0000.0001) %MON time_tsnumber                =                  1214
(PID.TID 0000.0001) %MON time_secondsf                =   1.2140000000000E+05
(PID.TID 0000.0001) %MON dynstat_eta_max              =   5.7988287769772E+00
(PID.TID 0000.0001) %MON dynstat_eta_min              =  -1.4170421658641E+01
(PID.TID 0000.0001) %MON dynstat_eta_mean             =  -2.5239478300163E+00
(PID.TID 0000.0001) %MON dynstat_eta_sd               =   4.9410411435256E+00
(PID.TID 0000.0001) %MON dynstat_eta_del2             =   1.9058804986743E-01
(PID.TID 0000.0001) %MON dynstat_uvel_max             =   7.5601121363178E-03
(PID.TID 0000.0001) %MON dynstat_uvel_min             =  -3.4963482835959E-02
(PID.TID 0000.0001) %MON dynstat_uvel_mean            =   2.4111852952331E-09
(PID.TID 0000.0001) %MON dynstat_uvel_sd              =   9.6481348570455E-04
(PID.TID 0000.0001) %MON dynstat_uvel_del2            =   1.4777433957116E-06
(PID.TID 0000.0001) %MON dynstat_vvel_max             =   2.3770900426639E-02
(PID.TID 0000.0001) %MON dynstat_vvel_min             =  -9.0810251706601E-03
(PID.TID 0000.0001) %MON dynstat_vvel_mean            =   1.5714201781200E-07
(PID.TID 0000.0001) %MON dynstat_vvel_sd              =   4.5763454262251E-04
(PID.TID 0000.0001) %MON dynstat_vvel_del2            =   1.2175210415484E-06
(PID.TID 0000.0001) %MON dynstat_wvel_max             =   1.4114718115887E-03
(PID.TID 0000.0001) %MON dynstat_wvel_min             =  -1.7395041456452E-03
(PID.TID 0000.0001) %MON dynstat_wvel_mean            =   3.0029410475312E-10
(PID.TID 0000.0001) %MON dynstat_wvel_sd              =   2.3076190672580E-05
(PID.TID 0000.0001) %MON dynstat_wvel_del2            =   9.4335256771799E-08
(PID.TID 0000.0001) %MON dynstat_theta_max            =   1.2000000000000E+00
(PID.TID 0000.0001) %MON dynstat_theta_min            =  -1.0000000000000E+00
(PID.TID 0000.0001) %MON dynstat_theta_mean           =   5.6508869280801E-01
(PID.TID 0000.0001) %MON dynstat_theta_sd             =   8.4892114323001E-01
(PID.TID 0000.0001) %MON dynstat_theta_del2           =   3.3982840369904E-06
(PID.TID 0000.0001) %MON dynstat_salt_max             =   3.4700000000000E+01
(PID.TID 0000.0001) %MON dynstat_salt_min             =   3.4000000000000E+01
(PID.TID 0000.0001) %MON dynstat_salt_mean            =   3.4497949505028E+01
(PID.TID 0000.0001) %MON dynstat_salt_sd              =   2.7010574478336E-01
(PID.TID 0000.0001) %MON dynstat_salt_del2            =   1.3447450628875E-06
(PID.TID 0000.0001) %MON advcfl_uvel_max              =   3.4963482835959E-03
(PID.TID 0000.0001) %MON advcfl_vvel_max              =   2.3770900426639E-03
(PID.TID 0000.0001) %MON advcfl_wvel_max              =   8.6975207282262E-03
(PID.TID 0000.0001) %MON advcfl_W_hf_max              =   8.6975207282262E-03
(PID.TID 0000.0001) %MON pe_b_mean                    =  -6.8192753365023E-01
(PID.TID 0000.0001) %MON ke_max                       =   5.0712867813973E-04
(PID.TID 0000.0001) %MON ke_mean                      =   5.6139470560605E-07
(PID.TID 0000.0001) %MON ke_vol                       =   4.6183077095640E+12
(PID.TID 0000.0001) // =======================================================
(PID.TID 0000.0001) // End MONITOR dynamic field statistics
(PID.TID 0000.0001) // =======================================================
(PID.TID 0000.0001) // =======================================================
(PID.TID 0000.0001) // Begin OBCS MONITOR field statistics
(PID.TID 0000.0001) // =======================================================
(PID.TID 0000.0001) %MON obc_N_vVel_max               =   1.1948220261950E-07
(PID.TID 0000.0001) %MON obc_N_vVel_min               =   1.1948220261949E-07
(PID.TID 0000.0001) %MON obc_N_vVel_mean              =   1.1948220261950E-07
(PID.TID 0000.0001) %MON obc_N_vVel_sd                =  -4.5122843778642E-28
(PID.TID 0000.0001) %MON obc_N_vVel_Int               =   7.8858253728869E+00
(PID.TID 0000.0001) // =======================================================
(PID.TID 0000.0001) // End OBCS MONITOR field statistics
(PID.TID 0000.0001) // =======================================================
 cg2d: Sum(rhs),rhsMax =   3.00838386662564E+00  4.53043300039786E+02
(PID.TID 0000.0001)      cg2d_init_res =   3.88571641353495E-06
(PID.TID 0000.0001)      cg2d_iters(min,last) =      -1      75
(PID.TID 0000.0001)      cg2d_last_res =   9.62342258669690E-12
(PID.TID 0000.0001) // =======================================================
(PID.TID 0000.0001) // Begin MONITOR dynamic field statistics
(PID.TID 0000.0001) // =======================================================
(PID.TID 0000.0001) %MON time_tsnumber                =                  1215
(PID.TID 0000.0001) %MON time_secondsf                =   1.2150000000000E+05
(PID.TID 0000.0001) %MON dynstat_eta_max              =   5.7988313373329E+00
(PID.TID 0000.0001) %MON dynstat_eta_min              =  -1.4170407216283E+01
(PID.TID 0000.0001) %MON dynstat_eta_mean             =  -2.5239410272640E+00
(PID.TID 0000.0001) %MON dynstat_eta_sd               =   4.9410391919055E+00
(PID.TID 0000.0001) %MON dynstat_eta_del2             =   1.9058807076996E-01
(PID.TID 0000.0001) %MON dynstat_uvel_max             =   7.5782034094427E-03
(PID.TID 0000.0001) %MON dynstat_uvel_min             =  -3.5037449350795E-02
(PID.TID 0000.0001) %MON dynstat_uvel_mean            =   2.5000768836207E-09
(PID.TID 0000.0001) %MON dynstat_uvel_sd              =   9.6712958253470E-04
(PID.TID 0000.0001) %MON dynstat_uvel_del2            =   1.4813261319524E-06
(PID.TID 0000.0001) %MON dynstat_vvel_max             =   2.3811646016733E-02
(PID.TID 0000.0001) %MON dynstat_vvel_min             =  -9.1006277744921E-03
(PID.TID 0000.0001) %MON dynstat_vvel_mean            =   1.5419930467149E-07
(PID.TID 0000.0001) %MON dynstat_vvel_sd              =   4.5854642286755E-04
(PID.TID 0000.0001) %MON dynstat_vvel_del2            =   1.2199809197390E-06
(PID.TID 0000.0001) %MON dynstat_wvel_max             =   1.4144656149196E-03
(PID.TID 0000.0001) %MON dynstat_wvel_min             =  -1.7440310788955E-03
(PID.TID 0000.0001) %MON dynstat_wvel_mean            =   2.8763445049369E-10
(PID.TID 0000.0001) %MON dynstat_wvel_sd              =   2.3118368960214E-05
(PID.TID 0000.0001) %MON dynstat_wvel_del2            =   9.4470796780701E-08
(PID.TID 0000.0001) %MON dynstat_theta_max            =   1.2000000000000E+00
(PID.TID 0000.0001) %MON dynstat_theta_min            =  -1.0000000000000E+00
(PID.TID 0000.0001) %MON dynstat_theta_mean           =   5.6508792300562E-01
(PID.TID 0000.0001) %MON dynstat_theta_sd             =   8.4892079860358E-01
(PID.TID 0000.0001) %MON dynstat_theta_del2           =   3.4049731229837E-06
(PID.TID 0000.0001) %MON dynstat_salt_max             =   3.4700000000000E+01
(PID.TID 0000.0001) %MON dynstat_salt_min             =   3.4000000000000E+01
(PID.TID 0000.0001) %MON dynstat_salt_mean            =   3.4497949197516E+01
(PID.TID 0000.0001) %MON dynstat_salt_sd              =   2.7010561465746E-01
(PID.TID 0000.0001) %MON dynstat_salt_del2            =   1.3473990127064E-06
(PID.TID 0000.0001) %MON advcfl_uvel_max              =   3.5037449350795E-03
(PID.TID 0000.0001) %MON advcfl_vvel_max              =   2.3811646016733E-03
(PID.TID 0000.0001) %MON advcfl_wvel_max              =   8.7201553944774E-03
(PID.TID 0000.0001) %MON advcfl_W_hf_max              =   8.7201553944774E-03
(PID.TID 0000.0001) %MON pe_b_mean                    =  -6.8192549329912E-01
(PID.TID 0000.0001) %MON ke_max                       =   5.0973712325498E-04
(PID.TID 0000.0001) %MON ke_mean                      =   5.6400764290553E-07
(PID.TID 0000.0001) %MON ke_vol                       =   4.6183077498897E+12
(PID.TID 0000.0001) // =======================================================
(PID.TID 0000.0001) // End MONITOR dynamic field statistics
(PID.TID 0000.0001) // =======================================================
(PID.TID 0000.0001) // =======================================================
(PID.TID 0000.0001) // Begin OBCS MONITOR field statistics
(PID.TID 0000.0001) // =======================================================
(PID.TID 0000.0001) %MON obc_N_vVel_max               =   1.1784382165925E-07
(PID.TID 0000.0001) %MON obc_N_vVel_min               =   1.1784382165925E-07
(PID.TID 0000.0001) %MON obc_N_vVel_mean              =   1.1784382165925E-07
(PID.TID 0000.0001) %MON obc_N_vVel_sd                =   1.2870928097710E-14
(PID.TID 0000.0001) %MON obc_N_vVel_Int               =   7.7776922295106E+00
(PID.TID 0000.0001) // =======================================================
(PID.TID 0000.0001) // End OBCS MONITOR field statistics
(PID.TID 0000.0001) // =======================================================
 cg2d: Sum(rhs),rhsMax =   3.00837581971407E+00  4.53043287907107E+02
(PID.TID 0000.0001)      cg2d_init_res =   3.89299889348680E-06
(PID.TID 0000.0001)      cg2d_iters(min,last) =      -1      75
(PID.TID 0000.0001)      cg2d_last_res =   9.64506162515220E-12
(PID.TID 0000.0001) // =======================================================
(PID.TID 0000.0001) // Begin MONITOR dynamic field statistics
(PID.TID 0000.0001) // =======================================================
(PID.TID 0000.0001) %MON time_tsnumber                =                  1216
(PID.TID 0000.0001) %MON time_secondsf                =   1.2160000000000E+05
(PID.TID 0000.0001) %MON dynstat_eta_max              =   5.7988339075203E+00
(PID.TID 0000.0001) %MON dynstat_eta_min              =  -1.4170392739114E+01
(PID.TID 0000.0001) %MON dynstat_eta_mean             =  -2.5239342085620E+00
(PID.TID 0000.0001) %MON dynstat_eta_sd               =   4.9410372338010E+00
(PID.TID 0000.0001) %MON dynstat_eta_del2             =   1.9058809170024E-01
(PID.TID 0000.0001) %MON dynstat_uvel_max             =   7.5963287273071E-03
(PID.TID 0000.0001) %MON dynstat_uvel_min             =  -3.5111466388894E-02
(PID.TID 0000.0001) %MON dynstat_uvel_mean            =   2.5862813310450E-09
(PID.TID 0000.0001) %MON dynstat_uvel_sd              =   9.6945042923981E-04
(PID.TID 0000.0001) %MON dynstat_uvel_del2            =   1.4849170252816E-06
(PID.TID 0000.0001) %MON dynstat_vvel_max             =   2.3852408696355E-02
(PID.TID 0000.0001) %MON dynstat_vvel_min             =  -9.1202512767237E-03
(PID.TID 0000.0001) %MON dynstat_vvel_mean            =   1.4943364196517E-07
(PID.TID 0000.0001) %MON dynstat_vvel_sd              =   4.5946038812048E-04
(PID.TID 0000.0001) %MON dynstat_vvel_del2            =   1.2224448530055E-06
(PID.TID 0000.0001) %MON dynstat_wvel_max             =   1.4174626284601E-03
(PID.TID 0000.0001) %MON dynstat_wvel_min             =  -1.7485636172013E-03
(PID.TID 0000.0001) %MON dynstat_wvel_mean            =   2.7590619982507E-10
(PID.TID 0000.0001) %MON dynstat_wvel_sd              =   2.3162173131944E-05
(PID.TID 0000.0001) %MON dynstat_wvel_del2            =   9.4609520651563E-08
(PID.TID 0000.0001) %MON dynstat_theta_max            =   1.2000000000000E+00
(PID.TID 0000.0001) %MON dynstat_theta_min            =  -1.0000000000000E+00
(PID.TID 0000.0001) %MON dynstat_theta_mean           =   5.6508715186195E-01
(PID.TID 0000.0001) %MON dynstat_theta_sd             =   8.4892045331435E-01
(PID.TID 0000.0001) %MON dynstat_theta_del2           =   3.4116709513279E-06
(PID.TID 0000.0001) %MON dynstat_salt_max             =   3.4700000000000E+01
(PID.TID 0000.0001) %MON dynstat_salt_min             =   3.4000000000000E+01
(PID.TID 0000.0001) %MON dynstat_salt_mean            =   3.4497948889467E+01
(PID.TID 0000.0001) %MON dynstat_salt_sd              =   2.7010548427844E-01
(PID.TID 0000.0001) %MON dynstat_salt_del2            =   1.3500564365742E-06
(PID.TID 0000.0001) %MON advcfl_uvel_max              =   3.5111466388894E-03
(PID.TID 0000.0001) %MON advcfl_vvel_max              =   2.3852408696355E-03
(PID.TID 0000.0001) %MON advcfl_wvel_max              =   8.7428180860063E-03
(PID.TID 0000.0001) %MON advcfl_W_hf_max              =   8.7428180860063E-03
(PID.TID 0000.0001) %MON pe_b_mean                    =  -6.8192344805781E-01
(PID.TID 0000.0001) %MON ke_max                       =   5.1235687017014E-04
(PID.TID 0000.0001) %MON ke_mean                      =   5.6663215105107E-07
(PID.TID 0000.0001) %MON ke_vol                       =   4.6183077902981E+12
(PID.TID 0000.0001) // =======================================================
(PID.TID 0000.0001) // End MONITOR dynamic field statistics
(PID.TID 0000.0001) // =======================================================
(PID.TID 0000.0001) // =======================================================
(PID.TID 0000.0001) // Begin OBCS MONITOR field statistics
(PID.TID 0000.0001) // =======================================================
(PID.TID 0000.0001) %MON obc_N_vVel_max               =   1.1439735944523E-07
(PID.TID 0000.0001) %MON obc_N_vVel_min               =   1.1439735944523E-07
(PID.TID 0000.0001) %MON obc_N_vVel_mean              =   1.1439735944523E-07
(PID.TID 0000.0001) %MON obc_N_vVel_sd                =   1.2047838252594E-14
(PID.TID 0000.0001) %MON obc_N_vVel_Int               =   7.5502257233852E+00
(PID.TID 0000.0001) // =======================================================
(PID.TID 0000.0001) // End OBCS MONITOR field statistics
(PID.TID 0000.0001) // =======================================================
 cg2d: Sum(rhs),rhsMax =   3.00836775621480E+00  4.53043275059417E+02
(PID.TID 0000.0001)      cg2d_init_res =   3.90044702446727E-06
(PID.TID 0000.0001)      cg2d_iters(min,last) =      -1      75
(PID.TID 0000.0001)      cg2d_last_res =   9.66721455799155E-12
(PID.TID 0000.0001) // =======================================================
(PID.TID 0000.0001) // Begin MONITOR dynamic field statistics
(PID.TID 0000.0001) // =======================================================
(PID.TID 0000.0001) %MON time_tsnumber                =                  1217
(PID.TID 0000.0001) %MON time_secondsf                =   1.2170000000000E+05
(PID.TID 0000.0001) %MON dynstat_eta_max              =   5.7988364905240E+00
(PID.TID 0000.0001) %MON dynstat_eta_min              =  -1.4170378223647E+01
(PID.TID 0000.0001) %MON dynstat_eta_mean             =  -2.5239273719606E+00
(PID.TID 0000.0001) %MON dynstat_eta_sd               =   4.9410352686518E+00
(PID.TID 0000.0001) %MON dynstat_eta_del2             =   1.9058811265689E-01
(PID.TID 0000.0001) %MON dynstat_uvel_max             =   7.6144880703337E-03
(PID.TID 0000.0001) %MON dynstat_uvel_min             =  -3.5185533626316E-02
(PID.TID 0000.0001) %MON dynstat_uvel_mean            =   2.6686130009001E-09
(PID.TID 0000.0001) %MON dynstat_uvel_sd              =   9.7177603542238E-04
(PID.TID 0000.0001) %MON dynstat_uvel_del2            =   1.4885160820238E-06
(PID.TID 0000.0001) %MON dynstat_vvel_max             =   2.3893188341185E-02
(PID.TID 0000.0001) %MON dynstat_vvel_min             =  -9.1398955757616E-03
(PID.TID 0000.0001) %MON dynstat_vvel_mean            =   1.4293747930170E-07
(PID.TID 0000.0001) %MON dynstat_vvel_sd              =   4.6037651974455E-04
(PID.TID 0000.0001) %MON dynstat_vvel_del2            =   1.2249135084511E-06
(PID.TID 0000.0001) %MON dynstat_wvel_max             =   1.4204628477566E-03
(PID.TID 0000.0001) %MON dynstat_wvel_min             =  -1.7531017155765E-03
(PID.TID 0000.0001) %MON dynstat_wvel_mean            =   2.6529202138014E-10
(PID.TID 0000.0001) %MON dynstat_wvel_sd              =   2.3207952721929E-05
(PID.TID 0000.0001) %MON dynstat_wvel_del2            =   9.4754247547532E-08
(PID.TID 0000.0001) %MON dynstat_theta_max            =   1.2000000000000E+00
(PID.TID 0000.0001) %MON dynstat_theta_min            =  -1.0000000000000E+00
(PID.TID 0000.0001) %MON dynstat_theta_mean           =   5.6508637937376E-01
(PID.TID 0000.0001) %MON dynstat_theta_sd             =   8.4892010736089E-01
(PID.TID 0000.0001) %MON dynstat_theta_del2           =   3.4183764533678E-06
(PID.TID 0000.0001) %MON dynstat_salt_max             =   3.4700000000000E+01
(PID.TID 0000.0001) %MON dynstat_salt_min             =   3.4000000000000E+01
(PID.TID 0000.0001) %MON dynstat_salt_mean            =   3.4497948580879E+01
(PID.TID 0000.0001) %MON dynstat_salt_sd              =   2.7010535364586E-01
(PID.TID 0000.0001) %MON dynstat_salt_del2            =   1.3527173438792E-06
(PID.TID 0000.0001) %MON advcfl_uvel_max              =   3.5185533626316E-03
(PID.TID 0000.0001) %MON advcfl_vvel_max              =   2.3893188341185E-03
(PID.TID 0000.0001) %MON advcfl_wvel_max              =   8.7655085778823E-03
(PID.TID 0000.0001) %MON advcfl_W_hf_max              =   8.7655085778823E-03
(PID.TID 0000.0001) %MON pe_b_mean                    =  -6.8192139755483E-01
(PID.TID 0000.0001) %MON ke_max                       =   5.1498795932191E-04
(PID.TID 0000.0001) %MON ke_mean                      =   5.6926831486054E-07
(PID.TID 0000.0001) %MON ke_vol                       =   4.6183078308011E+12
(PID.TID 0000.0001) // =======================================================
(PID.TID 0000.0001) // End MONITOR dynamic field statistics
(PID.TID 0000.0001) // =======================================================
(PID.TID 0000.0001) // =======================================================
(PID.TID 0000.0001) // Begin OBCS MONITOR field statistics
(PID.TID 0000.0001) // =======================================================
(PID.TID 0000.0001) %MON obc_N_vVel_max               =   1.0921392939719E-07
(PID.TID 0000.0001) %MON obc_N_vVel_min               =   1.0921392939718E-07
(PID.TID 0000.0001) %MON obc_N_vVel_mean              =   1.0921392939718E-07
(PID.TID 0000.0001) %MON obc_N_vVel_sd                =   3.1502174826003E-14
(PID.TID 0000.0001) %MON obc_N_vVel_Int               =   7.2081193402142E+00
(PID.TID 0000.0001) // =======================================================
(PID.TID 0000.0001) // End OBCS MONITOR field statistics
(PID.TID 0000.0001) // =======================================================
 cg2d: Sum(rhs),rhsMax =   3.00835967407475E+00  4.53043261475404E+02
(PID.TID 0000.0001)      cg2d_init_res =   3.90809678457798E-06
(PID.TID 0000.0001)      cg2d_iters(min,last) =      -1      75
(PID.TID 0000.0001)      cg2d_last_res =   9.68987798104817E-12
(PID.TID 0000.0001) // =======================================================
(PID.TID 0000.0001) // Begin MONITOR dynamic field statistics
(PID.TID 0000.0001) // =======================================================
(PID.TID 0000.0001) %MON time_tsnumber                =                  1218
(PID.TID 0000.0001) %MON time_secondsf                =   1.2180000000000E+05
(PID.TID 0000.0001) %MON dynstat_eta_max              =   5.7988390891229E+00
(PID.TID 0000.0001) %MON dynstat_eta_min              =  -1.4170363666642E+01
(PID.TID 0000.0001) %MON dynstat_eta_mean             =  -2.5239205156183E+00
(PID.TID 0000.0001) %MON dynstat_eta_sd               =   4.9410332959624E+00
(PID.TID 0000.0001) %MON dynstat_eta_del2             =   1.9058813363893E-01
(PID.TID 0000.0001) %MON dynstat_uvel_max             =   7.6326814179248E-03
(PID.TID 0000.0001) %MON dynstat_uvel_min             =  -3.5259650739135E-02
(PID.TID 0000.0001) %MON dynstat_uvel_mean            =   2.7459557474721E-09
(PID.TID 0000.0001) %MON dynstat_uvel_sd              =   9.7410641091245E-04
(PID.TID 0000.0001) %MON dynstat_uvel_del2            =   1.4921233118277E-06
(PID.TID 0000.0001) %MON dynstat_vvel_max             =   2.3933984863401E-02
(PID.TID 0000.0001) %MON dynstat_vvel_min             =  -9.1595605650094E-03
(PID.TID 0000.0001) %MON dynstat_vvel_mean            =   1.3482966879057E-07
(PID.TID 0000.0001) %MON dynstat_vvel_sd              =   4.6129487043817E-04
(PID.TID 0000.0001) %MON dynstat_vvel_del2            =   1.2273874308391E-06
(PID.TID 0000.0001) %MON dynstat_wvel_max             =   1.4234662703024E-03
(PID.TID 0000.0001) %MON dynstat_wvel_min             =  -1.7576453287353E-03
(PID.TID 0000.0001) %MON dynstat_wvel_mean            =   2.5595504256412E-10
(PID.TID 0000.0001) %MON dynstat_wvel_sd              =   2.3255927908742E-05
(PID.TID 0000.0001) %MON dynstat_wvel_del2            =   9.4907330911345E-08
(PID.TID 0000.0001) %MON dynstat_theta_max            =   1.2000000000000E+00
(PID.TID 0000.0001) %MON dynstat_theta_min            =  -1.0000000000000E+00
(PID.TID 0000.0001) %MON dynstat_theta_mean           =   5.6508560553792E-01
(PID.TID 0000.0001) %MON dynstat_theta_sd             =   8.4891976074019E-01
(PID.TID 0000.0001) %MON dynstat_theta_del2           =   3.4250894311133E-06
(PID.TID 0000.0001) %MON dynstat_salt_max             =   3.4700000000000E+01
(PID.TID 0000.0001) %MON dynstat_salt_min             =   3.4000000000000E+01
(PID.TID 0000.0001) %MON dynstat_salt_mean            =   3.4497948271753E+01
(PID.TID 0000.0001) %MON dynstat_salt_sd              =   2.7010522275871E-01
(PID.TID 0000.0001) %MON dynstat_salt_del2            =   1.3553816084024E-06
(PID.TID 0000.0001) %MON advcfl_uvel_max              =   3.5259650739135E-03
(PID.TID 0000.0001) %MON advcfl_vvel_max              =   2.3933984863401E-03
(PID.TID 0000.0001) %MON advcfl_wvel_max              =   8.7882266436765E-03
(PID.TID 0000.0001) %MON advcfl_W_hf_max              =   8.7882266436765E-03
(PID.TID 0000.0001) %MON pe_b_mean                    =  -6.8191934144583E-01
(PID.TID 0000.0001) %MON ke_max                       =   5.1763043127212E-04
(PID.TID 0000.0001) %MON ke_mean                      =   5.7191620662328E-07
(PID.TID 0000.0001) %MON ke_vol                       =   4.6183078714106E+12
(PID.TID 0000.0001) // =======================================================
(PID.TID 0000.0001) // End MONITOR dynamic field statistics
(PID.TID 0000.0001) // =======================================================
(PID.TID 0000.0001) // =======================================================
(PID.TID 0000.0001) // Begin OBCS MONITOR field statistics
(PID.TID 0000.0001) // =======================================================
(PID.TID 0000.0001) %MON obc_N_vVel_max               =   1.0239125610614E-07
(PID.TID 0000.0001) %MON obc_N_vVel_min               =   1.0239125610614E-07
(PID.TID 0000.0001) %MON obc_N_vVel_mean              =   1.0239125610614E-07
(PID.TID 0000.0001) %MON obc_N_vVel_sd                =   9.6480872102236E-15
(PID.TID 0000.0001) %MON obc_N_vVel_Int               =   6.7578229030054E+00
(PID.TID 0000.0001) // =======================================================
(PID.TID 0000.0001) // End OBCS MONITOR field statistics
(PID.TID 0000.0001) // =======================================================
 cg2d: Sum(rhs),rhsMax =   3.00835157133193E+00  4.53043247144386E+02
(PID.TID 0000.0001)      cg2d_init_res =   3.91594779748058E-06
(PID.TID 0000.0001)      cg2d_iters(min,last) =      -1      75
(PID.TID 0000.0001)      cg2d_last_res =   9.71303685643272E-12
(PID.TID 0000.0001) // =======================================================
(PID.TID 0000.0001) // Begin MONITOR dynamic field statistics
(PID.TID 0000.0001) // =======================================================
(PID.TID 0000.0001) %MON time_tsnumber                =                  1219
(PID.TID 0000.0001) %MON time_secondsf                =   1.2190000000000E+05
(PID.TID 0000.0001) %MON dynstat_eta_max              =   5.7988417058239E+00
(PID.TID 0000.0001) %MON dynstat_eta_min              =  -1.4170349065149E+01
(PID.TID 0000.0001) %MON dynstat_eta_mean             =  -2.5239136378299E+00
(PID.TID 0000.0001) %MON dynstat_eta_sd               =   4.9410313153036E+00
(PID.TID 0000.0001) %MON dynstat_eta_del2             =   1.9058815464558E-01
(PID.TID 0000.0001) %MON dynstat_uvel_max             =   7.6509087491248E-03
(PID.TID 0000.0001) %MON dynstat_uvel_min             =  -3.5333817403005E-02
(PID.TID 0000.0001) %MON dynstat_uvel_mean            =   2.8172808959516E-09
(PID.TID 0000.0001) %MON dynstat_uvel_sd              =   9.7644156552640E-04
(PID.TID 0000.0001) %MON dynstat_uvel_del2            =   1.4957387244282E-06
(PID.TID 0000.0001) %MON dynstat_vvel_max             =   2.3974798182363E-02
(PID.TID 0000.0001) %MON dynstat_vvel_min             =  -9.1792461332492E-03
(PID.TID 0000.0001) %MON dynstat_vvel_mean            =   1.2525352085201E-07
(PID.TID 0000.0001) %MON dynstat_vvel_sd              =   4.6221546234603E-04
(PID.TID 0000.0001) %MON dynstat_vvel_del2            =   1.2298670107261E-06
(PID.TID 0000.0001) %MON dynstat_wvel_max             =   1.4264728940171E-03
(PID.TID 0000.0001) %MON dynstat_wvel_min             =  -1.7621944113183E-03
(PID.TID 0000.0001) %MON dynstat_wvel_mean            =   2.4803874630891E-10
(PID.TID 0000.0001) %MON dynstat_wvel_sd              =   2.3306176220062E-05
(PID.TID 0000.0001) %MON dynstat_wvel_del2            =   9.5070499085000E-08
(PID.TID 0000.0001) %MON dynstat_theta_max            =   1.2000000000000E+00
(PID.TID 0000.0001) %MON dynstat_theta_min            =  -1.0000000000000E+00
(PID.TID 0000.0001) %MON dynstat_theta_mean           =   5.6508483035131E-01
(PID.TID 0000.0001) %MON dynstat_theta_sd             =   8.4891941344939E-01
(PID.TID 0000.0001) %MON dynstat_theta_del2           =   3.4318094333482E-06
(PID.TID 0000.0001) %MON dynstat_salt_max             =   3.4700000000000E+01
(PID.TID 0000.0001) %MON dynstat_salt_min             =   3.4000000000000E+01
(PID.TID 0000.0001) %MON dynstat_salt_mean            =   3.4497947962085E+01
(PID.TID 0000.0001) %MON dynstat_salt_sd              =   2.7010509161616E-01
(PID.TID 0000.0001) %MON dynstat_salt_del2            =   1.3580491232124E-06
(PID.TID 0000.0001) %MON advcfl_uvel_max              =   3.5333817403005E-03
(PID.TID 0000.0001) %MON advcfl_vvel_max              =   2.3974798182363E-03
(PID.TID 0000.0001) %MON advcfl_wvel_max              =   8.8109720565914E-03
(PID.TID 0000.0001) %MON advcfl_W_hf_max              =   8.8109720565914E-03
(PID.TID 0000.0001) %MON pe_b_mean                    =  -6.8191727941850E-01
(PID.TID 0000.0001) %MON ke_max                       =   5.2028432670451E-04
(PID.TID 0000.0001) %MON ke_mean                      =   5.7457588486586E-07
(PID.TID 0000.0001) %MON ke_vol                       =   4.6183079121372E+12
(PID.TID 0000.0001) // =======================================================
(PID.TID 0000.0001) // End MONITOR dynamic field statistics
(PID.TID 0000.0001) // =======================================================
(PID.TID 0000.0001) // =======================================================
(PID.TID 0000.0001) // Begin OBCS MONITOR field statistics
(PID.TID 0000.0001) // =======================================================
(PID.TID 0000.0001) %MON obc_N_vVel_max               =   9.4052018584362E-08
(PID.TID 0000.0001) %MON obc_N_vVel_min               =   9.4052018584362E-08
(PID.TID 0000.0001) %MON obc_N_vVel_mean              =   9.4052018584362E-08
(PID.TID 0000.0001) %MON obc_N_vVel_sd                =  -1.8617117363216E-28
(PID.TID 0000.0001) %MON obc_N_vVel_Int               =   6.2074332265679E+00
(PID.TID 0000.0001) // =======================================================
(PID.TID 0000.0001) // End OBCS MONITOR field statistics
(PID.TID 0000.0001) // =======================================================
 cg2d: Sum(rhs),rhsMax =   3.00834344614574E+00  4.53043232066445E+02
(PID.TID 0000.0001)      cg2d_init_res =   3.92399171098034E-06
(PID.TID 0000.0001)      cg2d_iters(min,last) =      -1      75
(PID.TID 0000.0001)      cg2d_last_res =   9.73665411971435E-12
(PID.TID 0000.0001) // =======================================================
(PID.TID 0000.0001) // Begin MONITOR dynamic field statistics
(PID.TID 0000.0001) // =======================================================
(PID.TID 0000.0001) %MON time_tsnumber                =                  1220
(PID.TID 0000.0001) %MON time_secondsf                =   1.2200000000000E+05
(PID.TID 0000.0001) %MON dynstat_eta_max              =   5.7988443428513E+00
(PID.TID 0000.0001) %MON dynstat_eta_min              =  -1.4170334416572E+01
(PID.TID 0000.0001) %MON dynstat_eta_mean             =  -2.5239067370514E+00
(PID.TID 0000.0001) %MON dynstat_eta_sd               =   4.9410293263204E+00
(PID.TID 0000.0001) %MON dynstat_eta_del2             =   1.9058817567625E-01
(PID.TID 0000.0001) %MON dynstat_uvel_max             =   7.6691700426244E-03
(PID.TID 0000.0001) %MON dynstat_uvel_min             =  -3.5408033293244E-02
(PID.TID 0000.0001) %MON dynstat_uvel_mean            =   2.8816530336015E-09
(PID.TID 0000.0001) %MON dynstat_uvel_sd              =   9.7878150907751E-04
(PID.TID 0000.0001) %MON dynstat_uvel_del2            =   1.4993623300255E-06
(PID.TID 0000.0001) %MON dynstat_vvel_max             =   2.4015628220022E-02
(PID.TID 0000.0001) %MON dynstat_vvel_min             =  -9.1989521644322E-03
(PID.TID 0000.0001) %MON dynstat_vvel_mean            =   1.1437442309728E-07
(PID.TID 0000.0001) %MON dynstat_vvel_sd              =   4.6313828632612E-04
(PID.TID 0000.0001) %MON dynstat_vvel_del2            =   1.2323524632503E-06
(PID.TID 0000.0001) %MON dynstat_wvel_max             =   1.4294827164809E-03
(PID.TID 0000.0001) %MON dynstat_wvel_min             =  -1.7667489138363E-03
(PID.TID 0000.0001) %MON dynstat_wvel_mean            =   2.4166393839298E-10
(PID.TID 0000.0001) %MON dynstat_wvel_sd              =   2.3358628658779E-05
(PID.TID 0000.0001) %MON dynstat_wvel_del2            =   9.5244737667071E-08
(PID.TID 0000.0001) %MON dynstat_theta_max            =   1.2000000000000E+00
(PID.TID 0000.0001) %MON dynstat_theta_min            =  -1.0000000000000E+00
(PID.TID 0000.0001) %MON dynstat_theta_mean           =   5.6508405381088E-01
(PID.TID 0000.0001) %MON dynstat_theta_sd             =   8.4891906548573E-01
(PID.TID 0000.0001) %MON dynstat_theta_del2           =   3.4385362541129E-06
(PID.TID 0000.0001) %MON dynstat_salt_max             =   3.4700000000000E+01
(PID.TID 0000.0001) %MON dynstat_salt_min             =   3.4000000000000E+01
(PID.TID 0000.0001) %MON dynstat_salt_mean            =   3.4497947651876E+01
(PID.TID 0000.0001) %MON dynstat_salt_sd              =   2.7010496021714E-01
(PID.TID 0000.0001) %MON dynstat_salt_del2            =   1.3607198365453E-06
(PID.TID 0000.0001) %MON advcfl_uvel_max              =   3.5408033293244E-03
(PID.TID 0000.0001) %MON advcfl_vvel_max              =   2.4015628220022E-03
(PID.TID 0000.0001) %MON advcfl_wvel_max              =   8.8337445691814E-03
(PID.TID 0000.0001) %MON advcfl_W_hf_max              =   8.8337445691814E-03
(PID.TID 0000.0001) %MON pe_b_mean                    =  -6.8191521119733E-01
(PID.TID 0000.0001) %MON ke_max                       =   5.2294968642755E-04
(PID.TID 0000.0001) %MON ke_mean                      =   5.7724739387976E-07
(PID.TID 0000.0001) %MON ke_vol                       =   4.6183079529913E+12
(PID.TID 0000.0001) // =======================================================
(PID.TID 0000.0001) // End MONITOR dynamic field statistics
(PID.TID 0000.0001) // =======================================================
(PID.TID 0000.0001) // =======================================================
(PID.TID 0000.0001) // Begin OBCS MONITOR field statistics
(PID.TID 0000.0001) // =======================================================
(PID.TID 0000.0001) %MON obc_N_vVel_max               =   8.4341784268331E-08
(PID.TID 0000.0001) %MON obc_N_vVel_min               =   8.4341784268329E-08
(PID.TID 0000.0001) %MON obc_N_vVel_mean              =   8.4341784268329E-08
(PID.TID 0000.0001) %MON obc_N_vVel_sd                =   2.3666246907926E-14
(PID.TID 0000.0001) %MON obc_N_vVel_Int               =   5.5665577617097E+00
(PID.TID 0000.0001) // =======================================================
(PID.TID 0000.0001) // End OBCS MONITOR field statistics
(PID.TID 0000.0001) // =======================================================
 cg2d: Sum(rhs),rhsMax =   3.00833529682474E+00  4.53043216252324E+02
(PID.TID 0000.0001)      cg2d_init_res =   3.93221026229333E-06
(PID.TID 0000.0001)      cg2d_iters(min,last) =      -1      75
(PID.TID 0000.0001)      cg2d_last_res =   9.76071250649850E-12
(PID.TID 0000.0001) // =======================================================
(PID.TID 0000.0001) // Begin MONITOR dynamic field statistics
(PID.TID 0000.0001) // =======================================================
(PID.TID 0000.0001) %MON time_tsnumber                =                  1221
(PID.TID 0000.0001) %MON time_secondsf                =   1.2210000000000E+05
(PID.TID 0000.0001) %MON dynstat_eta_max              =   5.7988470020776E+00
(PID.TID 0000.0001) %MON dynstat_eta_min              =  -1.4170319718684E+01
(PID.TID 0000.0001) %MON dynstat_eta_mean             =  -2.5238998119238E+00
(PID.TID 0000.0001) %MON dynstat_eta_sd               =   4.9410273287372E+00
(PID.TID 0000.0001) %MON dynstat_eta_del2             =   1.9058819673057E-01
(PID.TID 0000.0001) %MON dynstat_uvel_max             =   7.6874652744161E-03
(PID.TID 0000.0001) %MON dynstat_uvel_min             =  -3.5482298084694E-02
(PID.TID 0000.0001) %MON dynstat_uvel_mean            =   2.9382498266324E-09
(PID.TID 0000.0001) %MON dynstat_uvel_sd              =   9.8112625137967E-04
(PID.TID 0000.0001) %MON dynstat_uvel_del2            =   1.5029941393677E-06
(PID.TID 0000.0001) %MON dynstat_vvel_max             =   2.4056474900457E-02
(PID.TID 0000.0001) %MON dynstat_vvel_min             =  -9.2186785400759E-03
(PID.TID 0000.0001) %MON dynstat_vvel_mean            =   1.0237712783214E-07
(PID.TID 0000.0001) %MON dynstat_vvel_sd              =   4.6406330340230E-04
(PID.TID 0000.0001) %MON dynstat_vvel_del2            =   1.2348438201779E-06
(PID.TID 0000.0001) %MON dynstat_wvel_max             =   1.4324957351447E-03
(PID.TID 0000.0001) %MON dynstat_wvel_min             =  -1.7713087904555E-03
(PID.TID 0000.0001) %MON dynstat_wvel_mean            =   2.3692680034333E-10
(PID.TID 0000.0001) %MON dynstat_wvel_sd              =   2.3413075768696E-05
(PID.TID 0000.0001) %MON dynstat_wvel_del2            =   9.5430228183009E-08
(PID.TID 0000.0001) %MON dynstat_theta_max            =   1.2000000000000E+00
(PID.TID 0000.0001) %MON dynstat_theta_min            =  -1.0000000000000E+00
(PID.TID 0000.0001) %MON dynstat_theta_mean           =   5.6508327591374E-01
(PID.TID 0000.0001) %MON dynstat_theta_sd             =   8.4891871684597E-01
(PID.TID 0000.0001) %MON dynstat_theta_del2           =   3.4452699390215E-06
(PID.TID 0000.0001) %MON dynstat_salt_max             =   3.4700000000000E+01
(PID.TID 0000.0001) %MON dynstat_salt_min             =   3.4000000000000E+01
(PID.TID 0000.0001) %MON dynstat_salt_mean            =   3.4497947341123E+01
(PID.TID 0000.0001) %MON dynstat_salt_sd              =   2.7010482856088E-01
(PID.TID 0000.0001) %MON dynstat_salt_del2            =   1.3633937604526E-06
(PID.TID 0000.0001) %MON advcfl_uvel_max              =   3.5482298084694E-03
(PID.TID 0000.0001) %MON advcfl_vvel_max              =   2.4056474900457E-03
(PID.TID 0000.0001) %MON advcfl_wvel_max              =   8.8565439522777E-03
(PID.TID 0000.0001) %MON advcfl_W_hf_max              =   8.8565439522777E-03
(PID.TID 0000.0001) %MON pe_b_mean                    =  -6.8191313654760E-01
(PID.TID 0000.0001) %MON ke_max                       =   5.2562655136315E-04
(PID.TID 0000.0001) %MON ke_mean                      =   5.7993076425174E-07
(PID.TID 0000.0001) %MON ke_vol                       =   4.6183079939819E+12
(PID.TID 0000.0001) // =======================================================
(PID.TID 0000.0001) // End MONITOR dynamic field statistics
(PID.TID 0000.0001) // =======================================================
(PID.TID 0000.0001) // =======================================================
(PID.TID 0000.0001) // Begin OBCS MONITOR field statistics
(PID.TID 0000.0001) // =======================================================
(PID.TID 0000.0001) %MON obc_N_vVel_max               =   7.3426625924642E-08
(PID.TID 0000.0001) %MON obc_N_vVel_min               =   7.3426625924641E-08
(PID.TID 0000.0001) %MON obc_N_vVel_mean              =   7.3426625924642E-08
(PID.TID 0000.0001) %MON obc_N_vVel_sd                =  -4.7016109951172E-28
(PID.TID 0000.0001) %MON obc_N_vVel_Int               =   4.8461573110264E+00
(PID.TID 0000.0001) // =======================================================
(PID.TID 0000.0001) // End OBCS MONITOR field statistics
(PID.TID 0000.0001) // =======================================================
 cg2d: Sum(rhs),rhsMax =   3.00832712185301E+00  4.53043199722989E+02
(PID.TID 0000.0001)      cg2d_init_res =   3.94057684626223E-06
(PID.TID 0000.0001)      cg2d_iters(min,last) =      -1      75
(PID.TID 0000.0001)      cg2d_last_res =   9.78516465422331E-12
(PID.TID 0000.0001) // =======================================================
(PID.TID 0000.0001) // Begin MONITOR dynamic field statistics
(PID.TID 0000.0001) // =======================================================
(PID.TID 0000.0001) %MON time_tsnumber                =                  1222
(PID.TID 0000.0001) %MON time_secondsf                =   1.2220000000000E+05
(PID.TID 0000.0001) %MON dynstat_eta_max              =   5.7988496850314E+00
(PID.TID 0000.0001) %MON dynstat_eta_min              =  -1.4170304969671E+01
(PID.TID 0000.0001) %MON dynstat_eta_mean             =  -2.5238928612921E+00
(PID.TID 0000.0001) %MON dynstat_eta_sd               =   4.9410253223614E+00
(PID.TID 0000.0001) %MON dynstat_eta_del2             =   1.9058821780844E-01
(PID.TID 0000.0001) %MON dynstat_uvel_max             =   7.7057944207528E-03
(PID.TID 0000.0001) %MON dynstat_uvel_min             =  -3.5556611451708E-02
(PID.TID 0000.0001) %MON dynstat_uvel_mean            =   2.9863738876349E-09
(PID.TID 0000.0001) %MON dynstat_uvel_sd              =   9.8347580223865E-04
(PID.TID 0000.0001) %MON dynstat_uvel_del2            =   1.5066341638408E-06
(PID.TID 0000.0001) %MON dynstat_vvel_max             =   2.4097338149899E-02
(PID.TID 0000.0001) %MON dynstat_vvel_min             =  -9.2384251379201E-03
(PID.TID 0000.0001) %MON dynstat_vvel_mean            =   8.9462742192040E-08
(PID.TID 0000.0001) %MON dynstat_vvel_sd              =   4.6499044814764E-04
(PID.TID 0000.0001) %MON dynstat_vvel_del2            =   1.2373409356861E-06
(PID.TID 0000.0001) %MON dynstat_wvel_max             =   1.4355119473935E-03
(PID.TID 0000.0001) %MON dynstat_wvel_min             =  -1.7758739949276E-03
(PID.TID 0000.0001) %MON dynstat_wvel_mean            =   2.3389722913961E-10
(PID.TID 0000.0001) %MON dynstat_wvel_sd              =   2.3469183181451E-05
(PID.TID 0000.0001) %MON dynstat_wvel_del2            =   9.5626344611522E-08
(PID.TID 0000.0001) %MON dynstat_theta_max            =   1.2000000000000E+00
(PID.TID 0000.0001) %MON dynstat_theta_min            =  -1.0000000000000E+00
(PID.TID 0000.0001) %MON dynstat_theta_mean           =   5.6508249665706E-01
(PID.TID 0000.0001) %MON dynstat_theta_sd             =   8.4891836752641E-01
(PID.TID 0000.0001) %MON dynstat_theta_del2           =   3.4520107813100E-06
(PID.TID 0000.0001) %MON dynstat_salt_max             =   3.4700000000000E+01
(PID.TID 0000.0001) %MON dynstat_salt_min             =   3.4000000000000E+01
(PID.TID 0000.0001) %MON dynstat_salt_mean            =   3.4497947029827E+01
(PID.TID 0000.0001) %MON dynstat_salt_sd              =   2.7010469664598E-01
(PID.TID 0000.0001) %MON dynstat_salt_del2            =   1.3660709676336E-06
(PID.TID 0000.0001) %MON advcfl_uvel_max              =   3.5556611451708E-03
(PID.TID 0000.0001) %MON advcfl_vvel_max              =   2.4097338149899E-03
(PID.TID 0000.0001) %MON advcfl_wvel_max              =   8.8793699746378E-03
(PID.TID 0000.0001) %MON advcfl_W_hf_max              =   8.8793699746378E-03
(PID.TID 0000.0001) %MON pe_b_mean                    =  -6.8191105527864E-01
(PID.TID 0000.0001) %MON ke_max                       =   5.2831496255229E-04
(PID.TID 0000.0001) %MON ke_mean                      =   5.8262601428689E-07
(PID.TID 0000.0001) %MON ke_vol                       =   4.6183080351172E+12
(PID.TID 0000.0001) // =======================================================
(PID.TID 0000.0001) // End MONITOR dynamic field statistics
(PID.TID 0000.0001) // =======================================================
(PID.TID 0000.0001) // =======================================================
(PID.TID 0000.0001) // Begin OBCS MONITOR field statistics
(PID.TID 0000.0001) // =======================================================
(PID.TID 0000.0001) %MON obc_N_vVel_max               =   6.1490414715786E-08
(PID.TID 0000.0001) %MON obc_N_vVel_min               =   6.1490414715784E-08
(PID.TID 0000.0001) %MON obc_N_vVel_mean              =   6.1490414715784E-08
(PID.TID 0000.0001) %MON obc_N_vVel_sd                =   1.2434497875802E-14
(PID.TID 0000.0001) %MON obc_N_vVel_Int               =   4.0583673712418E+00
(PID.TID 0000.0001) // =======================================================
(PID.TID 0000.0001) // End OBCS MONITOR field statistics
(PID.TID 0000.0001) // =======================================================
 cg2d: Sum(rhs),rhsMax =   3.00831891991077E+00  4.53043182509393E+02
(PID.TID 0000.0001)      cg2d_init_res =   3.94905613851280E-06
(PID.TID 0000.0001)      cg2d_iters(min,last) =      -1      75
(PID.TID 0000.0001)      cg2d_last_res =   9.80996941194630E-12
(PID.TID 0000.0001) // =======================================================
(PID.TID 0000.0001) // Begin MONITOR dynamic field statistics
(PID.TID 0000.0001) // =======================================================
(PID.TID 0000.0001) %MON time_tsnumber                =                  1223
(PID.TID 0000.0001) %MON time_secondsf                =   1.2230000000000E+05
(PID.TID 0000.0001) %MON dynstat_eta_max              =   5.7988523928533E+00
(PID.TID 0000.0001) %MON dynstat_eta_min              =  -1.4170290168147E+01
(PID.TID 0000.0001) %MON dynstat_eta_mean             =  -2.5238858842215E+00
(PID.TID 0000.0001) %MON dynstat_eta_sd               =   4.9410233070853E+00
(PID.TID 0000.0001) %MON dynstat_eta_del2             =   1.9058823890996E-01
(PID.TID 0000.0001) %MON dynstat_uvel_max             =   7.7241574565878E-03
(PID.TID 0000.0001) %MON dynstat_uvel_min             =  -3.5630973067573E-02
(PID.TID 0000.0001) %MON dynstat_uvel_mean            =   3.0254664181966E-09
(PID.TID 0000.0001) %MON dynstat_uvel_sd              =   9.8583017144265E-04
(PID.TID 0000.0001) %MON dynstat_uvel_del2            =   1.5102824155479E-06
(PID.TID 0000.0001) %MON dynstat_vvel_max             =   2.4138217896541E-02
(PID.TID 0000.0001) %MON dynstat_vvel_min             =  -9.2581918330821E-03
(PID.TID 0000.0001) %MON dynstat_vvel_mean            =   7.5845460867405E-08
(PID.TID 0000.0001) %MON dynstat_vvel_sd              =   4.6591963381579E-04
(PID.TID 0000.0001) %MON dynstat_vvel_del2            =   1.2398435052888E-06
(PID.TID 0000.0001) %MON dynstat_wvel_max             =   1.4385313505283E-03
(PID.TID 0000.0001) %MON dynstat_wvel_min             =  -1.7804444808069E-03
(PID.TID 0000.0001) %MON dynstat_wvel_mean            =   2.3261838522215E-10
(PID.TID 0000.0001) %MON dynstat_wvel_sd              =   2.3526515511929E-05
(PID.TID 0000.0001) %MON dynstat_wvel_del2            =   9.5831710787655E-08
(PID.TID 0000.0001) %MON dynstat_theta_max            =   1.2000000000000E+00
(PID.TID 0000.0001) %MON dynstat_theta_min            =  -1.0000000000000E+00
(PID.TID 0000.0001) %MON dynstat_theta_mean           =   5.6508171603810E-01
(PID.TID 0000.0001) %MON dynstat_theta_sd             =   8.4891801752545E-01
(PID.TID 0000.0001) %MON dynstat_theta_del2           =   3.4587592914075E-06
(PID.TID 0000.0001) %MON dynstat_salt_max             =   3.4700000000000E+01
(PID.TID 0000.0001) %MON dynstat_salt_min             =   3.4000000000000E+01
(PID.TID 0000.0001) %MON dynstat_salt_mean            =   3.4497946717985E+01
(PID.TID 0000.0001) %MON dynstat_salt_sd              =   2.7010456447218E-01
(PID.TID 0000.0001) %MON dynstat_salt_del2            =   1.3687515833524E-06
(PID.TID 0000.0001) %MON advcfl_uvel_max              =   3.5630973067573E-03
(PID.TID 0000.0001) %MON advcfl_vvel_max              =   2.4138217896541E-03
(PID.TID 0000.0001) %MON advcfl_wvel_max              =   8.9022224040344E-03
(PID.TID 0000.0001) %MON advcfl_W_hf_max              =   8.9022224040344E-03
(PID.TID 0000.0001) %MON pe_b_mean                    =  -6.8190896724642E-01
(PID.TID 0000.0001) %MON ke_max                       =   5.3101496114411E-04
(PID.TID 0000.0001) %MON ke_mean                      =   5.8533315226378E-07
(PID.TID 0000.0001) %MON ke_vol                       =   4.6183080764039E+12
(PID.TID 0000.0001) // =======================================================
(PID.TID 0000.0001) // End MONITOR dynamic field statistics
(PID.TID 0000.0001) // =======================================================
(PID.TID 0000.0001) // =======================================================
(PID.TID 0000.0001) // Begin OBCS MONITOR field statistics
(PID.TID 0000.0001) // =======================================================
(PID.TID 0000.0001) %MON obc_N_vVel_max               =   4.8731788687922E-08
(PID.TID 0000.0001) %MON obc_N_vVel_min               =   4.8731788687920E-08
(PID.TID 0000.0001) %MON obc_N_vVel_mean              =   4.8731788687920E-08
(PID.TID 0000.0001) %MON obc_N_vVel_sd                =   1.5422112790540E-14
(PID.TID 0000.0001) %MON obc_N_vVel_Int               =   3.2162980534027E+00
(PID.TID 0000.0001) // =======================================================
(PID.TID 0000.0001) // End OBCS MONITOR field statistics
(PID.TID 0000.0001) // =======================================================
 cg2d: Sum(rhs),rhsMax =   3.00831068989334E+00  4.53043164651974E+02
(PID.TID 0000.0001)      cg2d_init_res =   3.95760592281509E-06
(PID.TID 0000.0001)      cg2d_iters(min,last) =      -1      75
(PID.TID 0000.0001)      cg2d_last_res =   9.83507420676225E-12
(PID.TID 0000.0001) // =======================================================
(PID.TID 0000.0001) // Begin MONITOR dynamic field statistics
(PID.TID 0000.0001) // =======================================================
(PID.TID 0000.0001) %MON time_tsnumber                =                  1224
(PID.TID 0000.0001) %MON time_secondsf                =   1.2240000000000E+05
(PID.TID 0000.0001) %MON dynstat_eta_max              =   5.7988551262915E+00
(PID.TID 0000.0001) %MON dynstat_eta_min              =  -1.4170275313187E+01
(PID.TID 0000.0001) %MON dynstat_eta_mean             =  -2.5238788800104E+00
(PID.TID 0000.0001) %MON dynstat_eta_sd               =   4.9410212828874E+00
(PID.TID 0000.0001) %MON dynstat_eta_del2             =   1.9058826003546E-01
(PID.TID 0000.0001) %MON dynstat_uvel_max             =   7.7425543560077E-03
(PID.TID 0000.0001) %MON dynstat_uvel_min             =  -3.5705382604733E-02
(PID.TID 0000.0001) %MON dynstat_uvel_mean            =   3.0551092692301E-09
(PID.TID 0000.0001) %MON dynstat_uvel_sd              =   9.8818936875447E-04
(PID.TID 0000.0001) %MON dynstat_uvel_del2            =   1.5139389073566E-06
(PID.TID 0000.0001) %MON dynstat_vvel_max             =   2.4179114070107E-02
(PID.TID 0000.0001) %MON dynstat_vvel_min             =  -9.2779784988701E-03
(PID.TID 0000.0001) %MON dynstat_vvel_mean            =   6.1749098166160E-08
(PID.TID 0000.0001) %MON dynstat_vvel_sd              =   4.6685075882311E-04
(PID.TID 0000.0001) %MON dynstat_vvel_del2            =   1.2423510961317E-06
(PID.TID 0000.0001) %MON dynstat_wvel_max             =   1.4415539417900E-03
(PID.TID 0000.0001) %MON dynstat_wvel_min             =  -1.7850202012049E-03
(PID.TID 0000.0001) %MON dynstat_wvel_mean            =   2.3310557596176E-10
(PID.TID 0000.0001) %MON dynstat_wvel_sd              =   2.3584566919171E-05
(PID.TID 0000.0001) %MON dynstat_wvel_del2            =   9.6044313147439E-08
(PID.TID 0000.0001) %MON dynstat_theta_max            =   1.2000000000000E+00
(PID.TID 0000.0001) %MON dynstat_theta_min            =  -1.0000000000000E+00
(PID.TID 0000.0001) %MON dynstat_theta_mean           =   5.6508093405421E-01
(PID.TID 0000.0001) %MON dynstat_theta_sd             =   8.4891766684219E-01
(PID.TID 0000.0001) %MON dynstat_theta_del2           =   3.4655161482011E-06
(PID.TID 0000.0001) %MON dynstat_salt_max             =   3.4700000000000E+01
(PID.TID 0000.0001) %MON dynstat_salt_min             =   3.4000000000000E+01
(PID.TID 0000.0001) %MON dynstat_salt_mean            =   3.4497946405598E+01
(PID.TID 0000.0001) %MON dynstat_salt_sd              =   2.7010443203909E-01
(PID.TID 0000.0001) %MON dynstat_salt_del2            =   1.3714357750804E-06
(PID.TID 0000.0001) %MON advcfl_uvel_max              =   3.5705382604733E-03
(PID.TID 0000.0001) %MON advcfl_vvel_max              =   2.4179114070107E-03
(PID.TID 0000.0001) %MON advcfl_wvel_max              =   8.9251010060244E-03
(PID.TID 0000.0001) %MON advcfl_W_hf_max              =   8.9251010060244E-03
(PID.TID 0000.0001) %MON pe_b_mean                    =  -6.8190687235533E-01
(PID.TID 0000.0001) %MON ke_max                       =   5.3372658838810E-04
(PID.TID 0000.0001) %MON ke_mean                      =   5.8805217934960E-07
(PID.TID 0000.0001) %MON ke_vol                       =   4.6183081178477E+12
(PID.TID 0000.0001) // =======================================================
(PID.TID 0000.0001) // End MONITOR dynamic field statistics
(PID.TID 0000.0001) // =======================================================
(PID.TID 0000.0001) // =======================================================
(PID.TID 0000.0001) // Begin OBCS MONITOR field statistics
(PID.TID 0000.0001) // =======================================================
(PID.TID 0000.0001) %MON obc_N_vVel_max               =   3.5360966049544E-08
(PID.TID 0000.0001) %MON obc_N_vVel_min               =   3.5360966049543E-08
(PID.TID 0000.0001) %MON obc_N_vVel_mean              =   3.5360966049543E-08
(PID.TID 0000.0001) %MON obc_N_vVel_sd                =   4.0458452495537E-15
(PID.TID 0000.0001) %MON obc_N_vVel_Int               =   2.3338237592699E+00
(PID.TID 0000.0001) // =======================================================
(PID.TID 0000.0001) // End OBCS MONITOR field statistics
(PID.TID 0000.0001) // =======================================================
 cg2d: Sum(rhs),rhsMax =   3.00830243092604E+00  4.53043146199949E+02
(PID.TID 0000.0001)      cg2d_init_res =   3.96617816214899E-06
(PID.TID 0000.0001)      cg2d_iters(min,last) =      -1      75
(PID.TID 0000.0001)      cg2d_last_res =   9.86042249767450E-12
(PID.TID 0000.0001) // =======================================================
(PID.TID 0000.0001) // Begin MONITOR dynamic field statistics
(PID.TID 0000.0001) // =======================================================
(PID.TID 0000.0001) %MON time_tsnumber                =                  1225
(PID.TID 0000.0001) %MON time_secondsf                =   1.2250000000000E+05
(PID.TID 0000.0001) %MON dynstat_eta_max              =   5.7988578856810E+00
(PID.TID 0000.0001) %MON dynstat_eta_min              =  -1.4170260404324E+01
(PID.TID 0000.0001) %MON dynstat_eta_mean             =  -2.5238718481994E+00
(PID.TID 0000.0001) %MON dynstat_eta_sd               =   4.9410192498313E+00
(PID.TID 0000.0001) %MON dynstat_eta_del2             =   1.9058828118546E-01
(PID.TID 0000.0001) %MON dynstat_uvel_max             =   7.7609850922551E-03
(PID.TID 0000.0001) %MON dynstat_uvel_min             =  -3.5779839734500E-02
(PID.TID 0000.0001) %MON dynstat_uvel_mean            =   3.0750313978234E-09
(PID.TID 0000.0001) %MON dynstat_uvel_sd              =   9.9055340390111E-04
(PID.TID 0000.0001) %MON dynstat_uvel_del2            =   1.5176036529117E-06
(PID.TID 0000.0001) %MON dynstat_vvel_max             =   2.4220026601372E-02
(PID.TID 0000.0001) %MON dynstat_vvel_min             =  -9.2977850073044E-03
(PID.TID 0000.0001) %MON dynstat_vvel_mean            =   4.7403480200304E-08
(PID.TID 0000.0001) %MON dynstat_vvel_sd              =   4.6778371414389E-04
(PID.TID 0000.0001) %MON dynstat_vvel_del2            =   1.2448631865380E-06
(PID.TID 0000.0001) %MON dynstat_wvel_max             =   1.4445797183494E-03
(PID.TID 0000.0001) %MON dynstat_wvel_min             =  -1.7896011088433E-03
(PID.TID 0000.0001) %MON dynstat_wvel_mean            =   2.3534642773861E-10
(PID.TID 0000.0001) %MON dynstat_wvel_sd              =   2.3642796149113E-05
(PID.TID 0000.0001) %MON dynstat_wvel_del2            =   9.6261660039537E-08
(PID.TID 0000.0001) %MON dynstat_theta_max            =   1.2000000000000E+00
(PID.TID 0000.0001) %MON dynstat_theta_min            =  -1.0000000000000E+00
(PID.TID 0000.0001) %MON dynstat_theta_mean           =   5.6508015070276E-01
(PID.TID 0000.0001) %MON dynstat_theta_sd             =   8.4891731547689E-01
(PID.TID 0000.0001) %MON dynstat_theta_del2           =   3.4722821394093E-06
(PID.TID 0000.0001) %MON dynstat_salt_max             =   3.4700000000000E+01
(PID.TID 0000.0001) %MON dynstat_salt_min             =   3.4000000000000E+01
(PID.TID 0000.0001) %MON dynstat_salt_mean            =   3.4497946092663E+01
(PID.TID 0000.0001) %MON dynstat_salt_sd              =   2.7010429934671E-01
(PID.TID 0000.0001) %MON dynstat_salt_del2            =   1.3741237348329E-06
(PID.TID 0000.0001) %MON advcfl_uvel_max              =   3.5779839734500E-03
(PID.TID 0000.0001) %MON advcfl_vvel_max              =   2.4220026601372E-03
(PID.TID 0000.0001) %MON advcfl_wvel_max              =   8.9480055442167E-03
(PID.TID 0000.0001) %MON advcfl_W_hf_max              =   8.9480055442167E-03
(PID.TID 0000.0001) %MON pe_b_mean                    =  -6.8190477055922E-01
(PID.TID 0000.0001) %MON ke_max                       =   5.3644988563989E-04
(PID.TID 0000.0001) %MON ke_mean                      =   5.9078309297678E-07
(PID.TID 0000.0001) %MON ke_vol                       =   4.6183081594527E+12
(PID.TID 0000.0001) // =======================================================
(PID.TID 0000.0001) // End MONITOR dynamic field statistics
(PID.TID 0000.0001) // =======================================================
(PID.TID 0000.0001) // =======================================================
(PID.TID 0000.0001) // Begin OBCS MONITOR field statistics
(PID.TID 0000.0001) // =======================================================
(PID.TID 0000.0001) %MON obc_N_vVel_max               =   2.1596315754339E-08
(PID.TID 0000.0001) %MON obc_N_vVel_min               =   2.1596315754339E-08
(PID.TID 0000.0001) %MON obc_N_vVel_mean              =   2.1596315754339E-08
(PID.TID 0000.0001) %MON obc_N_vVel_sd                =  -6.2122796286155E-30
(PID.TID 0000.0001) %MON obc_N_vVel_Int               =   1.4253568397864E+00
(PID.TID 0000.0001) // =======================================================
(PID.TID 0000.0001) // End OBCS MONITOR field statistics
(PID.TID 0000.0001) // =======================================================
 cg2d: Sum(rhs),rhsMax =   3.00829414237758E+00  4.53043127210543E+02
(PID.TID 0000.0001)      cg2d_init_res =   3.97472338102750E-06
(PID.TID 0000.0001)      cg2d_iters(min,last) =      -1      75
(PID.TID 0000.0001)      cg2d_last_res =   9.88595792158851E-12
(PID.TID 0000.0001) // =======================================================
(PID.TID 0000.0001) // Begin MONITOR dynamic field statistics
(PID.TID 0000.0001) // =======================================================
(PID.TID 0000.0001) %MON time_tsnumber                =                  1226
(PID.TID 0000.0001) %MON time_secondsf                =   1.2260000000000E+05
(PID.TID 0000.0001) %MON dynstat_eta_max              =   5.7988606709481E+00
(PID.TID 0000.0001) %MON dynstat_eta_min              =  -1.4170245441550E+01
(PID.TID 0000.0001) %MON dynstat_eta_mean             =  -2.5238647885776E+00
(PID.TID 0000.0001) %MON dynstat_eta_sd               =   4.9410172080651E+00
(PID.TID 0000.0001) %MON dynstat_eta_del2             =   1.9058830236074E-01
(PID.TID 0000.0001) %MON dynstat_uvel_max             =   7.7794496349526E-03
(PID.TID 0000.0001) %MON dynstat_uvel_min             =  -3.5854344126890E-02
(PID.TID 0000.0001) %MON dynstat_uvel_mean            =   3.0851148007020E-09
(PID.TID 0000.0001) %MON dynstat_uvel_sd              =   9.9292228656268E-04
(PID.TID 0000.0001) %MON dynstat_uvel_del2            =   1.5212766666291E-06
(PID.TID 0000.0001) %MON dynstat_vvel_max             =   2.4260955421701E-02
(PID.TID 0000.0001) %MON dynstat_vvel_min             =  -9.3176112297022E-03
(PID.TID 0000.0001) %MON dynstat_vvel_mean            =   3.3040758896945E-08
(PID.TID 0000.0001) %MON dynstat_vvel_sd              =   4.6871839110916E-04
(PID.TID 0000.0001) %MON dynstat_vvel_del2            =   1.2473792115683E-06
(PID.TID 0000.0001) %MON dynstat_wvel_max             =   1.4476086773229E-03
(PID.TID 0000.0001) %MON dynstat_wvel_min             =  -1.7941871567703E-03
(PID.TID 0000.0001) %MON dynstat_wvel_mean            =   2.3930131093363E-10
(PID.TID 0000.0001) %MON dynstat_wvel_sd              =   2.3700663594715E-05
(PID.TID 0000.0001) %MON dynstat_wvel_del2            =   9.6480974902485E-08
(PID.TID 0000.0001) %MON dynstat_theta_max            =   1.2000000000000E+00
(PID.TID 0000.0001) %MON dynstat_theta_min            =  -1.0000000000000E+00
(PID.TID 0000.0001) %MON dynstat_theta_mean           =   5.6507936598138E-01
(PID.TID 0000.0001) %MON dynstat_theta_sd             =   8.4891696342908E-01
(PID.TID 0000.0001) %MON dynstat_theta_del2           =   3.4790580947306E-06
(PID.TID 0000.0001) %MON dynstat_salt_max             =   3.4700000000000E+01
(PID.TID 0000.0001) %MON dynstat_salt_min             =   3.4000000000000E+01
(PID.TID 0000.0001) %MON dynstat_salt_mean            =   3.4497945779180E+01
(PID.TID 0000.0001) %MON dynstat_salt_sd              =   2.7010416639524E-01
(PID.TID 0000.0001) %MON dynstat_salt_del2            =   1.3768156640129E-06
(PID.TID 0000.0001) %MON advcfl_uvel_max              =   3.5854344126890E-03
(PID.TID 0000.0001) %MON advcfl_vvel_max              =   2.4260955421701E-03
(PID.TID 0000.0001) %MON advcfl_wvel_max              =   8.9709357838513E-03
(PID.TID 0000.0001) %MON advcfl_W_hf_max              =   8.9709357838513E-03
(PID.TID 0000.0001) %MON pe_b_mean                    =  -6.8190266186201E-01
(PID.TID 0000.0001) %MON ke_max                       =   5.3918489434872E-04
(PID.TID 0000.0001) %MON ke_mean                      =   5.9352589044913E-07
(PID.TID 0000.0001) %MON ke_vol                       =   4.6183082012217E+12
(PID.TID 0000.0001) // =======================================================
(PID.TID 0000.0001) // End MONITOR dynamic field statistics
(PID.TID 0000.0001) // =======================================================
(PID.TID 0000.0001) // =======================================================
(PID.TID 0000.0001) // Begin OBCS MONITOR field statistics
(PID.TID 0000.0001) // =======================================================
(PID.TID 0000.0001) %MON obc_N_vVel_max               =   7.6608457477353E-09
(PID.TID 0000.0001) %MON obc_N_vVel_min               =   7.6608457477353E-09
(PID.TID 0000.0001) %MON obc_N_vVel_mean              =   7.6608457477353E-09
(PID.TID 0000.0001) %MON obc_N_vVel_sd                =  -2.6007757969005E-30
(PID.TID 0000.0001) %MON obc_N_vVel_Int               =   5.0561581935053E-01
(PID.TID 0000.0001) // =======================================================
(PID.TID 0000.0001) // End OBCS MONITOR field statistics
(PID.TID 0000.0001) // =======================================================
 cg2d: Sum(rhs),rhsMax =   3.00828582386822E+00  4.53043107747796E+02
(PID.TID 0000.0001)      cg2d_init_res =   3.98319129066665E-06
(PID.TID 0000.0001)      cg2d_iters(min,last) =      -1      75
(PID.TID 0000.0001)      cg2d_last_res =   9.91161564624598E-12
(PID.TID 0000.0001) // =======================================================
(PID.TID 0000.0001) // Begin MONITOR dynamic field statistics
(PID.TID 0000.0001) // =======================================================
(PID.TID 0000.0001) %MON time_tsnumber                =                  1227
(PID.TID 0000.0001) %MON time_secondsf                =   1.2270000000000E+05
(PID.TID 0000.0001) %MON dynstat_eta_max              =   5.7988634816229E+00
(PID.TID 0000.0001) %MON dynstat_eta_min              =  -1.4170230425327E+01
(PID.TID 0000.0001) %MON dynstat_eta_mean             =  -2.5238577011831E+00
(PID.TID 0000.0001) %MON dynstat_eta_sd               =   4.9410151578186E+00
(PID.TID 0000.0001) %MON dynstat_eta_del2             =   1.9058832356225E-01
(PID.TID 0000.0001) %MON dynstat_uvel_max             =   7.7979479499364E-03
(PID.TID 0000.0001) %MON dynstat_uvel_min             =  -3.5928895450591E-02
(PID.TID 0000.0001) %MON dynstat_uvel_mean            =   3.0853942401752E-09
(PID.TID 0000.0001) %MON dynstat_uvel_sd              =   9.9529602636334E-04
(PID.TID 0000.0001) %MON dynstat_uvel_del2            =   1.5249579636841E-06
(PID.TID 0000.0001) %MON dynstat_vvel_max             =   2.4301900462566E-02
(PID.TID 0000.0001) %MON dynstat_vvel_min             =  -9.3374570373908E-03
(PID.TID 0000.0001) %MON dynstat_vvel_mean            =   1.8891715982238E-08
(PID.TID 0000.0001) %MON dynstat_vvel_sd              =   4.6965468907124E-04
(PID.TID 0000.0001) %MON dynstat_vvel_del2            =   1.2498986109962E-06
(PID.TID 0000.0001) %MON dynstat_wvel_max             =   1.4506408157746E-03
(PID.TID 0000.0001) %MON dynstat_wvel_min             =  -1.7987782983509E-03
(PID.TID 0000.0001) %MON dynstat_wvel_mean            =   2.4490398581225E-10
(PID.TID 0000.0001) %MON dynstat_wvel_sd              =   2.3757667806898E-05
(PID.TID 0000.0001) %MON dynstat_wvel_del2            =   9.6699408069818E-08
(PID.TID 0000.0001) %MON dynstat_theta_max            =   1.2000000000000E+00
(PID.TID 0000.0001) %MON dynstat_theta_min            =  -1.0000000000000E+00
(PID.TID 0000.0001) %MON dynstat_theta_mean           =   5.6507857988781E-01
(PID.TID 0000.0001) %MON dynstat_theta_sd             =   8.4891661070055E-01
(PID.TID 0000.0001) %MON dynstat_theta_del2           =   3.4858448249870E-06
(PID.TID 0000.0001) %MON dynstat_salt_max             =   3.4700000000000E+01
(PID.TID 0000.0001) %MON dynstat_salt_min             =   3.4000000000000E+01
(PID.TID 0000.0001) %MON dynstat_salt_mean            =   3.4497945465148E+01
(PID.TID 0000.0001) %MON dynstat_salt_sd              =   2.7010403318503E-01
(PID.TID 0000.0001) %MON dynstat_salt_del2            =   1.3795117564277E-06
(PID.TID 0000.0001) %MON advcfl_uvel_max              =   3.5928895450591E-03
(PID.TID 0000.0001) %MON advcfl_vvel_max              =   2.4301900462566E-03
(PID.TID 0000.0001) %MON advcfl_wvel_max              =   8.9938914917545E-03
(PID.TID 0000.0001) %MON advcfl_W_hf_max              =   8.9938914917545E-03
(PID.TID 0000.0001) %MON pe_b_mean                    =  -6.8190054631702E-01
(PID.TID 0000.0001) %MON ke_max                       =   5.4193165606079E-04
(PID.TID 0000.0001) %MON ke_mean                      =   5.9628057253175E-07
(PID.TID 0000.0001) %MON ke_vol                       =   4.6183082431558E+12
(PID.TID 0000.0001) // =======================================================
(PID.TID 0000.0001) // End MONITOR dynamic field statistics
(PID.TID 0000.0001) // =======================================================
(PID.TID 0000.0001) // =======================================================
(PID.TID 0000.0001) // Begin OBCS MONITOR field statistics
(PID.TID 0000.0001) // =======================================================
(PID.TID 0000.0001) %MON obc_N_vVel_max               =  -6.2213384483135E-09
(PID.TID 0000.0001) %MON obc_N_vVel_min               =  -6.2213384483136E-09
(PID.TID 0000.0001) %MON obc_N_vVel_mean              =  -6.2213384483135E-09
(PID.TID 0000.0001) %MON obc_N_vVel_sd                =   1.4043333874307E-15
(PID.TID 0000.0001) %MON obc_N_vVel_Int               =  -4.1060833758869E-01
(PID.TID 0000.0001) // =======================================================
(PID.TID 0000.0001) // End OBCS MONITOR field statistics
(PID.TID 0000.0001) // =======================================================
 cg2d: Sum(rhs),rhsMax =   3.00827747527112E+00  4.53043087881838E+02
(PID.TID 0000.0001)      cg2d_init_res =   3.99153289116127E-06
(PID.TID 0000.0001)      cg2d_iters(min,last) =      -1      75
(PID.TID 0000.0001)      cg2d_last_res =   9.93732758324557E-12
(PID.TID 0000.0001) // =======================================================
(PID.TID 0000.0001) // Begin MONITOR dynamic field statistics
(PID.TID 0000.0001) // =======================================================
(PID.TID 0000.0001) %MON time_tsnumber                =                  1228
(PID.TID 0000.0001) %MON time_secondsf                =   1.2280000000000E+05
(PID.TID 0000.0001) %MON dynstat_eta_max              =   5.7988663168278E+00
(PID.TID 0000.0001) %MON dynstat_eta_min              =  -1.4170215356556E+01
(PID.TID 0000.0001) %MON dynstat_eta_mean             =  -2.5238505863004E+00
(PID.TID 0000.0001) %MON dynstat_eta_sd               =   4.9410130993982E+00
(PID.TID 0000.0001) %MON dynstat_eta_del2             =   1.9058834479116E-01
(PID.TID 0000.0001) %MON dynstat_uvel_max             =   7.8164800016189E-03
(PID.TID 0000.0001) %MON dynstat_uvel_min             =  -3.6003493372893E-02
(PID.TID 0000.0001) %MON dynstat_uvel_mean            =   3.0760586527933E-09
(PID.TID 0000.0001) %MON dynstat_uvel_sd              =   9.9767463286522E-04
(PID.TID 0000.0001) %MON dynstat_uvel_del2            =   1.5286475599479E-06
(PID.TID 0000.0001) %MON dynstat_vvel_max             =   2.4342861655115E-02
(PID.TID 0000.0001) %MON dynstat_vvel_min             =  -9.3573223022811E-03
(PID.TID 0000.0001) %MON dynstat_vvel_mean            =   5.1820992514279E-09
(PID.TID 0000.0001) %MON dynstat_vvel_sd              =   4.7059252241077E-04
(PID.TID 0000.0001) %MON dynstat_vvel_del2            =   1.2524208760382E-06
(PID.TID 0000.0001) %MON dynstat_wvel_max             =   1.4536761307204E-03
(PID.TID 0000.0001) %MON dynstat_wvel_min             =  -1.8033744865620E-03
(PID.TID 0000.0001) %MON dynstat_wvel_mean            =   2.5206240385523E-10
(PID.TID 0000.0001) %MON dynstat_wvel_sd              =   2.3813378957698E-05
(PID.TID 0000.0001) %MON dynstat_wvel_del2            =   9.6914250790976E-08
(PID.TID 0000.0001) %MON dynstat_theta_max            =   1.2000000000000E+00
(PID.TID 0000.0001) %MON dynstat_theta_min            =  -1.0000000000000E+00
(PID.TID 0000.0001) %MON dynstat_theta_mean           =   5.6507779241989E-01
(PID.TID 0000.0001) %MON dynstat_theta_sd             =   8.4891625729269E-01
(PID.TID 0000.0001) %MON dynstat_theta_del2           =   3.4926430540523E-06
(PID.TID 0000.0001) %MON dynstat_salt_max             =   3.4700000000000E+01
(PID.TID 0000.0001) %MON dynstat_salt_min             =   3.4000000000000E+01
(PID.TID 0000.0001) %MON dynstat_salt_mean            =   3.4497945150566E+01
(PID.TID 0000.0001) %MON dynstat_salt_sd              =   2.7010389971651E-01
(PID.TID 0000.0001) %MON dynstat_salt_del2            =   1.3822121820295E-06
(PID.TID 0000.0001) %MON advcfl_uvel_max              =   3.6003493372893E-03
(PID.TID 0000.0001) %MON advcfl_vvel_max              =   2.4342861655115E-03
(PID.TID 0000.0001) %MON advcfl_wvel_max              =   9.0168724328102E-03
(PID.TID 0000.0001) %MON advcfl_W_hf_max              =   9.0168724328102E-03
(PID.TID 0000.0001) %MON pe_b_mean                    =  -6.8189842402556E-01
(PID.TID 0000.0001) %MON ke_max                       =   5.4469021241082E-04
(PID.TID 0000.0001) %MON ke_mean                      =   5.9904714677840E-07
(PID.TID 0000.0001) %MON ke_vol                       =   4.6183082852550E+12
(PID.TID 0000.0001) // =======================================================
(PID.TID 0000.0001) // End MONITOR dynamic field statistics
(PID.TID 0000.0001) // =======================================================
(PID.TID 0000.0001) // =======================================================
(PID.TID 0000.0001) // Begin OBCS MONITOR field statistics
(PID.TID 0000.0001) // =======================================================
(PID.TID 0000.0001) %MON obc_N_vVel_max               =  -1.9828583672056E-08
(PID.TID 0000.0001) %MON obc_N_vVel_min               =  -1.9828583672057E-08
(PID.TID 0000.0001) %MON obc_N_vVel_mean              =  -1.9828583672056E-08
(PID.TID 0000.0001) %MON obc_N_vVel_sd                =   3.5388086795394E-15
(PID.TID 0000.0001) %MON obc_N_vVel_Int               =  -1.3086865223557E+00
(PID.TID 0000.0001) // =======================================================
(PID.TID 0000.0001) // End OBCS MONITOR field statistics
(PID.TID 0000.0001) // =======================================================
 cg2d: Sum(rhs),rhsMax =   3.00826909671074E+00  4.53043067687798E+02
(PID.TID 0000.0001)      cg2d_init_res =   3.99970391777775E-06
(PID.TID 0000.0001)      cg2d_iters(min,last) =      -1      75
(PID.TID 0000.0001)      cg2d_last_res =   9.96302717742656E-12
(PID.TID 0000.0001) // =======================================================
(PID.TID 0000.0001) // Begin MONITOR dynamic field statistics
(PID.TID 0000.0001) // =======================================================
(PID.TID 0000.0001) %MON time_tsnumber                =                  1229
(PID.TID 0000.0001) %MON time_secondsf                =   1.2290000000000E+05
(PID.TID 0000.0001) %MON dynstat_eta_max              =   5.7988691753105E+00
(PID.TID 0000.0001) %MON dynstat_eta_min              =  -1.4170200236583E+01
(PID.TID 0000.0001) %MON dynstat_eta_mean             =  -2.5238434444523E+00
(PID.TID 0000.0001) %MON dynstat_eta_sd               =   4.9410110331823E+00
(PID.TID 0000.0001) %MON dynstat_eta_del2             =   1.9058836604877E-01
(PID.TID 0000.0001) %MON dynstat_uvel_max             =   7.8350457534357E-03
(PID.TID 0000.0001) %MON dynstat_uvel_min             =  -3.6078137559592E-02
(PID.TID 0000.0001) %MON dynstat_uvel_mean            =   3.0574473670660E-09
(PID.TID 0000.0001) %MON dynstat_uvel_sd              =   1.0000581155620E-03
(PID.TID 0000.0001) %MON dynstat_uvel_del2            =   1.5323454719428E-06
(PID.TID 0000.0001) %MON dynstat_vvel_max             =   2.4383838929636E-02
(PID.TID 0000.0001) %MON dynstat_vvel_min             =  -9.3772068975222E-03
(PID.TID 0000.0001) %MON dynstat_vvel_mean            =  -7.8709540808378E-09
(PID.TID 0000.0001) %MON dynstat_vvel_sd              =   4.7153182642111E-04
(PID.TID 0000.0001) %MON dynstat_vvel_del2            =   1.2549455911530E-06
(PID.TID 0000.0001) %MON dynstat_wvel_max             =   1.4567146191449E-03
(PID.TID 0000.0001) %MON dynstat_wvel_min             =  -1.8079756739829E-03
(PID.TID 0000.0001) %MON dynstat_wvel_mean            =   2.6066049727616E-10
(PID.TID 0000.0001) %MON dynstat_wvel_sd              =   2.3867467005051E-05
(PID.TID 0000.0001) %MON dynstat_wvel_del2            =   9.7123135165510E-08
(PID.TID 0000.0001) %MON dynstat_theta_max            =   1.2000000000000E+00
(PID.TID 0000.0001) %MON dynstat_theta_min            =  -1.0000000000000E+00
(PID.TID 0000.0001) %MON dynstat_theta_mean           =   5.6507700357544E-01
(PID.TID 0000.0001) %MON dynstat_theta_sd             =   8.4891590320701E-01
(PID.TID 0000.0001) %MON dynstat_theta_del2           =   3.4994533652029E-06
(PID.TID 0000.0001) %MON dynstat_salt_max             =   3.4700000000000E+01
(PID.TID 0000.0001) %MON dynstat_salt_min             =   3.4000000000000E+01
(PID.TID 0000.0001) %MON dynstat_salt_mean            =   3.4497944835433E+01
(PID.TID 0000.0001) %MON dynstat_salt_sd              =   2.7010376599019E-01
(PID.TID 0000.0001) %MON dynstat_salt_del2            =   1.3849170733461E-06
(PID.TID 0000.0001) %MON advcfl_uvel_max              =   3.6078137559592E-03
(PID.TID 0000.0001) %MON advcfl_vvel_max              =   2.4383838929636E-03
(PID.TID 0000.0001) %MON advcfl_wvel_max              =   9.0398783699143E-03
(PID.TID 0000.0001) %MON advcfl_W_hf_max              =   9.0398783699143E-03
(PID.TID 0000.0001) %MON pe_b_mean                    =  -6.8189629513482E-01
(PID.TID 0000.0001) %MON ke_max                       =   5.4746060512435E-04
(PID.TID 0000.0001) %MON ke_mean                      =   6.0182563036971E-07
(PID.TID 0000.0001) %MON ke_vol                       =   4.6183083275174E+12
(PID.TID 0000.0001) // =======================================================
(PID.TID 0000.0001) // End MONITOR dynamic field statistics
(PID.TID 0000.0001) // =======================================================
(PID.TID 0000.0001) // =======================================================
(PID.TID 0000.0001) // Begin OBCS MONITOR field statistics
(PID.TID 0000.0001) // =======================================================
(PID.TID 0000.0001) %MON obc_N_vVel_max               =  -3.2945240471295E-08
(PID.TID 0000.0001) %MON obc_N_vVel_min               =  -3.2945240471296E-08
(PID.TID 0000.0001) %MON obc_N_vVel_mean              =  -3.2945240471295E-08
(PID.TID 0000.0001) %MON obc_N_vVel_sd                =   6.9368952146102E-15
(PID.TID 0000.0001) %MON obc_N_vVel_Int               =  -2.1743858711055E+00
(PID.TID 0000.0001) // =======================================================
(PID.TID 0000.0001) // End OBCS MONITOR field statistics
(PID.TID 0000.0001) // =======================================================
 cg2d: Sum(rhs),rhsMax =   3.00826068855739E+00  4.53043047244831E+02
(PID.TID 0000.0001)      cg2d_init_res =   4.00766687048326E-06
(PID.TID 0000.0001)      cg2d_iters(min,last) =      -1      75
(PID.TID 0000.0001)      cg2d_last_res =   9.98864076275417E-12
(PID.TID 0000.0001) // =======================================================
(PID.TID 0000.0001) // Begin MONITOR dynamic field statistics
(PID.TID 0000.0001) // =======================================================
(PID.TID 0000.0001) %MON time_tsnumber                =                  1230
(PID.TID 0000.0001) %MON time_secondsf                =   1.2300000000000E+05
(PID.TID 0000.0001) %MON dynstat_eta_max              =   5.7988720554670E+00
(PID.TID 0000.0001) %MON dynstat_eta_min              =  -1.4170185067150E+01
(PID.TID 0000.0001) %MON dynstat_eta_mean             =  -2.5238362763905E+00
(PID.TID 0000.0001) %MON dynstat_eta_sd               =   4.9410089596135E+00
(PID.TID 0000.0001) %MON dynstat_eta_del2             =   1.9058838733654E-01
(PID.TID 0000.0001) %MON dynstat_uvel_max             =   7.8536451691820E-03
(PID.TID 0000.0001) %MON dynstat_uvel_min             =  -3.6152827674724E-02
(PID.TID 0000.0001) %MON dynstat_uvel_mean            =   3.0300469498204E-09
(PID.TID 0000.0001) %MON dynstat_uvel_sd              =   1.0024464838726E-03
(PID.TID 0000.0001) %MON dynstat_uvel_del2            =   1.5360517168088E-06
(PID.TID 0000.0001) %MON dynstat_vvel_max             =   2.4424832215165E-02
(PID.TID 0000.0001) %MON dynstat_vvel_min             =  -9.3971106980293E-03
(PID.TID 0000.0001) %MON dynstat_vvel_mean            =  -2.0062347109303E-08
(PID.TID 0000.0001) %MON dynstat_vvel_sd              =   4.7247256167396E-04
(PID.TID 0000.0001) %MON dynstat_vvel_del2            =   1.2574724677136E-06
(PID.TID 0000.0001) %MON dynstat_wvel_max             =   1.4597562780095E-03
(PID.TID 0000.0001) %MON dynstat_wvel_min             =  -1.8125818122993E-03
(PID.TID 0000.0001) %MON dynstat_wvel_mean            =   2.7056011643195E-10
(PID.TID 0000.0001) %MON dynstat_wvel_sd              =   2.3919722702550E-05
(PID.TID 0000.0001) %MON dynstat_wvel_del2            =   9.7324205078243E-08
(PID.TID 0000.0001) %MON dynstat_theta_max            =   1.2000000000000E+00
(PID.TID 0000.0001) %MON dynstat_theta_min            =  -1.0000000000000E+00
(PID.TID 0000.0001) %MON dynstat_theta_mean           =   5.6507621335237E-01
(PID.TID 0000.0001) %MON dynstat_theta_sd             =   8.4891554844361E-01
(PID.TID 0000.0001) %MON dynstat_theta_del2           =   3.5062761406860E-06
(PID.TID 0000.0001) %MON dynstat_salt_max             =   3.4700000000000E+01
(PID.TID 0000.0001) %MON dynstat_salt_min             =   3.4000000000000E+01
(PID.TID 0000.0001) %MON dynstat_salt_mean            =   3.4497944519749E+01
(PID.TID 0000.0001) %MON dynstat_salt_sd              =   2.7010363200626E-01
(PID.TID 0000.0001) %MON dynstat_salt_del2            =   1.3876265117911E-06
(PID.TID 0000.0001) %MON advcfl_uvel_max              =   3.6152827674724E-03
(PID.TID 0000.0001) %MON advcfl_vvel_max              =   2.4424832215165E-03
(PID.TID 0000.0001) %MON advcfl_wvel_max              =   9.0629090614965E-03
(PID.TID 0000.0001) %MON advcfl_W_hf_max              =   9.0629090614965E-03
(PID.TID 0000.0001) %MON pe_b_mean                    =  -6.8189415983508E-01
(PID.TID 0000.0001) %MON ke_max                       =   5.5024287601029E-04
(PID.TID 0000.0001) %MON ke_mean                      =   6.0461605226801E-07
(PID.TID 0000.0001) %MON ke_vol                       =   4.6183083699400E+12
(PID.TID 0000.0001) // =======================================================
(PID.TID 0000.0001) // End MONITOR dynamic field statistics
(PID.TID 0000.0001) // =======================================================
(PID.TID 0000.0001) // =======================================================
(PID.TID 0000.0001) // Begin OBCS MONITOR field statistics
(PID.TID 0000.0001) // =======================================================
(PID.TID 0000.0001) %MON obc_N_vVel_max               =  -4.5365073508059E-08
(PID.TID 0000.0001) %MON obc_N_vVel_min               =  -4.5365073508060E-08
(PID.TID 0000.0001) %MON obc_N_vVel_mean              =  -4.5365073508060E-08
(PID.TID 0000.0001) %MON obc_N_vVel_sd                =  -8.0858242785154E-29
(PID.TID 0000.0001) %MON obc_N_vVel_Int               =  -2.9940948515320E+00
(PID.TID 0000.0001) // =======================================================
(PID.TID 0000.0001) // End OBCS MONITOR field statistics
(PID.TID 0000.0001) // =======================================================
 cg2d: Sum(rhs),rhsMax =   3.00825225142473E+00  4.53043026634052E+02
(PID.TID 0000.0001)      cg2d_init_res =   4.01539481234412E-06
(PID.TID 0000.0001)      cg2d_iters(min,last) =      -1      76
(PID.TID 0000.0001)      cg2d_last_res =   8.55957151484324E-12
(PID.TID 0000.0001) // =======================================================
(PID.TID 0000.0001) // Begin MONITOR dynamic field statistics
(PID.TID 0000.0001) // =======================================================
(PID.TID 0000.0001) %MON time_tsnumber                =                  1231
(PID.TID 0000.0001) %MON time_secondsf                =   1.2310000000000E+05
(PID.TID 0000.0001) %MON dynstat_eta_max              =   5.7988749551988E+00
(PID.TID 0000.0001) %MON dynstat_eta_min              =  -1.4170169849783E+01
(PID.TID 0000.0001) %MON dynstat_eta_mean             =  -2.5238290830818E+00
(PID.TID 0000.0001) %MON dynstat_eta_sd               =   4.9410068791815E+00
(PID.TID 0000.0001) %MON dynstat_eta_del2             =   1.9058840865592E-01
(PID.TID 0000.0001) %MON dynstat_uvel_max             =   7.8722782083469E-03
(PID.TID 0000.0001) %MON dynstat_uvel_min             =  -3.6227563380284E-02
(PID.TID 0000.0001) %MON dynstat_uvel_mean            =   2.9944373317915E-09
(PID.TID 0000.0001) %MON dynstat_uvel_sd              =   1.0048397471448E-03
(PID.TID 0000.0001) %MON dynstat_uvel_del2            =   1.5397663122029E-06
(PID.TID 0000.0001) %MON dynstat_vvel_max             =   2.4465841439104E-02
(PID.TID 0000.0001) %MON dynstat_vvel_min             =  -9.4170335780852E-03
(PID.TID 0000.0001) %MON dynstat_vvel_mean            =  -3.1202507342365E-08
(PID.TID 0000.0001) %MON dynstat_vvel_sd              =   4.7341471659028E-04
(PID.TID 0000.0001) %MON dynstat_vvel_del2            =   1.2600013669829E-06
(PID.TID 0000.0001) %MON dynstat_wvel_max             =   1.4628011023554E-03
(PID.TID 0000.0001) %MON dynstat_wvel_min             =  -1.8171928497302E-03
(PID.TID 0000.0001) %MON dynstat_wvel_mean            =   2.8160516976874E-10
(PID.TID 0000.0001) %MON dynstat_wvel_sd              =   2.3970070113722E-05
(PID.TID 0000.0001) %MON dynstat_wvel_del2            =   9.7516245792844E-08
(PID.TID 0000.0001) %MON dynstat_theta_max            =   1.2000000000000E+00
(PID.TID 0000.0001) %MON dynstat_theta_min            =  -1.0000000000000E+00
(PID.TID 0000.0001) %MON dynstat_theta_mean           =   5.6507542174865E-01
(PID.TID 0000.0001) %MON dynstat_theta_sd             =   8.4891519300316E-01
(PID.TID 0000.0001) %MON dynstat_theta_del2           =   3.5131115407333E-06
(PID.TID 0000.0001) %MON dynstat_salt_max             =   3.4700000000000E+01
(PID.TID 0000.0001) %MON dynstat_salt_min             =   3.4000000000000E+01
(PID.TID 0000.0001) %MON dynstat_salt_mean            =   3.4497944203512E+01
(PID.TID 0000.0001) %MON dynstat_salt_sd              =   2.7010349776467E-01
(PID.TID 0000.0001) %MON dynstat_salt_del2            =   1.3903405195893E-06
(PID.TID 0000.0001) %MON advcfl_uvel_max              =   3.6227563380284E-03
(PID.TID 0000.0001) %MON advcfl_vvel_max              =   2.4465841439104E-03
(PID.TID 0000.0001) %MON advcfl_wvel_max              =   9.0859642486508E-03
(PID.TID 0000.0001) %MON advcfl_W_hf_max              =   9.0859642486508E-03
(PID.TID 0000.0001) %MON pe_b_mean                    =  -6.8189201835638E-01
(PID.TID 0000.0001) %MON ke_max                       =   5.5303706677678E-04
(PID.TID 0000.0001) %MON ke_mean                      =   6.0741845455805E-07
(PID.TID 0000.0001) %MON ke_vol                       =   4.6183084125182E+12
(PID.TID 0000.0001) // =======================================================
(PID.TID 0000.0001) // End MONITOR dynamic field statistics
(PID.TID 0000.0001) // =======================================================
(PID.TID 0000.0001) // =======================================================
(PID.TID 0000.0001) // Begin OBCS MONITOR field statistics
(PID.TID 0000.0001) // =======================================================
(PID.TID 0000.0001) %MON obc_N_vVel_max               =  -5.6894507652306E-08
(PID.TID 0000.0001) %MON obc_N_vVel_min               =  -5.6894507652307E-08
(PID.TID 0000.0001) %MON obc_N_vVel_mean              =  -5.6894507652306E-08
(PID.TID 0000.0001) %MON obc_N_vVel_sd                =   7.8441794094245E-15
(PID.TID 0000.0001) %MON obc_N_vVel_Int               =  -3.7550375050522E+00
(PID.TID 0000.0001) // =======================================================
(PID.TID 0000.0001) // End OBCS MONITOR field statistics
(PID.TID 0000.0001) // =======================================================
 cg2d: Sum(rhs),rhsMax =   3.00824378615421E+00  4.53043005937871E+02
(PID.TID 0000.0001)      cg2d_init_res =   4.02282835298792E-06
(PID.TID 0000.0001)      cg2d_iters(min,last) =      -1      76
(PID.TID 0000.0001)      cg2d_last_res =   8.58176298979697E-12
(PID.TID 0000.0001) // =======================================================
(PID.TID 0000.0001) // Begin MONITOR dynamic field statistics
(PID.TID 0000.0001) // =======================================================
(PID.TID 0000.0001) %MON time_tsnumber                =                  1232
(PID.TID 0000.0001) %MON time_secondsf                =   1.2320000000000E+05
(PID.TID 0000.0001) %MON dynstat_eta_max              =   5.7988778725910E+00
(PID.TID 0000.0001) %MON dynstat_eta_min              =  -1.4170154588123E+01
(PID.TID 0000.0001) %MON dynstat_eta_mean             =  -2.5238218656912E+00
(PID.TID 0000.0001) %MON dynstat_eta_sd               =   4.9410047924556E+00
(PID.TID 0000.0001) %MON dynstat_eta_del2             =   1.9058843000880E-01
(PID.TID 0000.0001) %MON dynstat_uvel_max             =   7.8909448474604E-03
(PID.TID 0000.0001) %MON dynstat_uvel_min             =  -3.6302344338708E-02
(PID.TID 0000.0001) %MON dynstat_uvel_mean            =   2.9514573298602E-09
(PID.TID 0000.0001) %MON dynstat_uvel_sd              =   1.0072379146403E-03
(PID.TID 0000.0001) %MON dynstat_uvel_del2            =   1.5434892761980E-06
(PID.TID 0000.0001) %MON dynstat_vvel_max             =   2.4506866526669E-02
(PID.TID 0000.0001) %MON dynstat_vvel_min             =  -9.4369754270236E-03
(PID.TID 0000.0001) %MON dynstat_vvel_mean            =  -4.1119230868540E-08
(PID.TID 0000.0001) %MON dynstat_vvel_sd              =   4.7435830808723E-04
(PID.TID 0000.0001) %MON dynstat_vvel_del2            =   1.2625323109987E-06
(PID.TID 0000.0001) %MON dynstat_wvel_max             =   1.4658490947844E-03
(PID.TID 0000.0001) %MON dynstat_wvel_min             =  -1.8218087446510E-03
(PID.TID 0000.0001) %MON dynstat_wvel_mean            =   2.9361407269617E-10
(PID.TID 0000.0001) %MON dynstat_wvel_sd              =   2.4018569899550E-05
(PID.TID 0000.0001) %MON dynstat_wvel_del2            =   9.7698763595181E-08
(PID.TID 0000.0001) %MON dynstat_theta_max            =   1.2000000000000E+00
(PID.TID 0000.0001) %MON dynstat_theta_min            =  -1.0000000000000E+00
(PID.TID 0000.0001) %MON dynstat_theta_mean           =   5.6507462876238E-01
(PID.TID 0000.0001) %MON dynstat_theta_sd             =   8.4891483688469E-01
(PID.TID 0000.0001) %MON dynstat_theta_del2           =   3.5199594849881E-06
(PID.TID 0000.0001) %MON dynstat_salt_max             =   3.4700000000000E+01
(PID.TID 0000.0001) %MON dynstat_salt_min             =   3.4000000000000E+01
(PID.TID 0000.0001) %MON dynstat_salt_mean            =   3.4497943886721E+01
(PID.TID 0000.0001) %MON dynstat_salt_sd              =   2.7010336326551E-01
(PID.TID 0000.0001) %MON dynstat_salt_del2            =   1.3930591020419E-06
(PID.TID 0000.0001) %MON advcfl_uvel_max              =   3.6302344338708E-03
(PID.TID 0000.0001) %MON advcfl_vvel_max              =   2.4506866526669E-03
(PID.TID 0000.0001) %MON advcfl_wvel_max              =   9.1090437232550E-03
(PID.TID 0000.0001) %MON advcfl_W_hf_max              =   9.1090437232550E-03
(PID.TID 0000.0001) %MON pe_b_mean                    =  -6.8188987096443E-01
(PID.TID 0000.0001) %MON ke_max                       =   5.5584321994481E-04
(PID.TID 0000.0001) %MON ke_mean                      =   6.1023289287254E-07
(PID.TID 0000.0001) %MON ke_vol                       =   4.6183084552465E+12
(PID.TID 0000.0001) // =======================================================
(PID.TID 0000.0001) // End MONITOR dynamic field statistics
(PID.TID 0000.0001) // =======================================================
(PID.TID 0000.0001) // =======================================================
(PID.TID 0000.0001) // Begin OBCS MONITOR field statistics
(PID.TID 0000.0001) // =======================================================
(PID.TID 0000.0001) %MON obc_N_vVel_max               =  -6.7355325256827E-08
(PID.TID 0000.0001) %MON obc_N_vVel_min               =  -6.7355325256827E-08
(PID.TID 0000.0001) %MON obc_N_vVel_mean              =  -6.7355325256827E-08
(PID.TID 0000.0001) %MON obc_N_vVel_sd                =   3.0767402982137E-15
(PID.TID 0000.0001) %MON obc_N_vVel_Int               =  -4.4454514669506E+00
(PID.TID 0000.0001) // =======================================================
(PID.TID 0000.0001) // End OBCS MONITOR field statistics
(PID.TID 0000.0001) // =======================================================
 cg2d: Sum(rhs),rhsMax =   3.00823529379343E+00  4.53042985239346E+02
(PID.TID 0000.0001)      cg2d_init_res =   4.03005558125427E-06
(PID.TID 0000.0001)      cg2d_iters(min,last) =      -1      76
(PID.TID 0000.0001)      cg2d_last_res =   8.60373113135017E-12
(PID.TID 0000.0001) // =======================================================
(PID.TID 0000.0001) // Begin MONITOR dynamic field statistics
(PID.TID 0000.0001) // =======================================================
(PID.TID 0000.0001) %MON time_tsnumber                =                  1233
(PID.TID 0000.0001) %MON time_secondsf                =   1.2330000000000E+05
(PID.TID 0000.0001) %MON dynstat_eta_max              =   5.7988808049873E+00
(PID.TID 0000.0001) %MON dynstat_eta_min              =  -1.4170139284300E+01
(PID.TID 0000.0001) %MON dynstat_eta_mean             =  -2.5238146255602E+00
(PID.TID 0000.0001) %MON dynstat_eta_sd               =   4.9410027000138E+00
(PID.TID 0000.0001) %MON dynstat_eta_del2             =   1.9058845139687E-01
(PID.TID 0000.0001) %MON dynstat_uvel_max             =   7.9096450361007E-03
(PID.TID 0000.0001) %MON dynstat_uvel_min             =  -3.6377170207652E-02
(PID.TID 0000.0001) %MON dynstat_uvel_mean            =   2.9019536975174E-09
(PID.TID 0000.0001) %MON dynstat_uvel_sd              =   1.0096409955674E-03
(PID.TID 0000.0001) %MON dynstat_uvel_del2            =   1.5472206278720E-06
(PID.TID 0000.0001) %MON dynstat_vvel_max             =   2.4547907400823E-02
(PID.TID 0000.0001) %MON dynstat_vvel_min             =  -9.4569361194823E-03
(PID.TID 0000.0001) %MON dynstat_vvel_mean            =  -4.9662046817458E-08
(PID.TID 0000.0001) %MON dynstat_vvel_sd              =   4.7530338016388E-04
(PID.TID 0000.0001) %MON dynstat_vvel_del2            =   1.2650654790690E-06
(PID.TID 0000.0001) %MON dynstat_wvel_max             =   1.4689002465366E-03
(PID.TID 0000.0001) %MON dynstat_wvel_min             =  -1.8264294382654E-03
(PID.TID 0000.0001) %MON dynstat_wvel_mean            =   3.0640375535523E-10
(PID.TID 0000.0001) %MON dynstat_wvel_sd              =   2.4065413171486E-05
(PID.TID 0000.0001) %MON dynstat_wvel_del2            =   9.7872009318451E-08
(PID.TID 0000.0001) %MON dynstat_theta_max            =   1.2000000000000E+00
(PID.TID 0000.0001) %MON dynstat_theta_min            =  -1.0000000000000E+00
(PID.TID 0000.0001) %MON dynstat_theta_mean           =   5.6507383439174E-01
(PID.TID 0000.0001) %MON dynstat_theta_sd             =   8.4891448008868E-01
(PID.TID 0000.0001) %MON dynstat_theta_del2           =   3.5268196625975E-06
(PID.TID 0000.0001) %MON dynstat_salt_max             =   3.4700000000000E+01
(PID.TID 0000.0001) %MON dynstat_salt_min             =   3.4000000000000E+01
(PID.TID 0000.0001) %MON dynstat_salt_mean            =   3.4497943569377E+01
(PID.TID 0000.0001) %MON dynstat_salt_sd              =   2.7010322850874E-01
(PID.TID 0000.0001) %MON dynstat_salt_del2            =   1.3957822000572E-06
(PID.TID 0000.0001) %MON advcfl_uvel_max              =   3.6377170207652E-03
(PID.TID 0000.0001) %MON advcfl_vvel_max              =   2.4547907400823E-03
(PID.TID 0000.0001) %MON advcfl_wvel_max              =   9.1321471913270E-03
(PID.TID 0000.0001) %MON advcfl_W_hf_max              =   9.1321471913270E-03
(PID.TID 0000.0001) %MON pe_b_mean                    =  -6.8188771795592E-01
(PID.TID 0000.0001) %MON ke_max                       =   5.5866137706164E-04
(PID.TID 0000.0001) %MON ke_mean                      =   6.1305943588899E-07
(PID.TID 0000.0001) %MON ke_vol                       =   4.6183084981178E+12
(PID.TID 0000.0001) // =======================================================
(PID.TID 0000.0001) // End MONITOR dynamic field statistics
(PID.TID 0000.0001) // =======================================================
(PID.TID 0000.0001) // =======================================================
(PID.TID 0000.0001) // Begin OBCS MONITOR field statistics
(PID.TID 0000.0001) // =======================================================
(PID.TID 0000.0001) %MON obc_N_vVel_max               =  -7.6588771442012E-08
(PID.TID 0000.0001) %MON obc_N_vVel_min               =  -7.6588771442015E-08
(PID.TID 0000.0001) %MON obc_N_vVel_mean              =  -7.6588771442012E-08
(PID.TID 0000.0001) %MON obc_N_vVel_sd                =   2.5105773504746E-14
(PID.TID 0000.0001) %MON obc_N_vVel_Int               =  -5.0548589151728E+00
(PID.TID 0000.0001) // =======================================================
(PID.TID 0000.0001) // End OBCS MONITOR field statistics
(PID.TID 0000.0001) // =======================================================
 cg2d: Sum(rhs),rhsMax =   3.00822677558440E+00  4.53042964619755E+02
(PID.TID 0000.0001)      cg2d_init_res =   4.03703649970616E-06
(PID.TID 0000.0001)      cg2d_iters(min,last) =      -1      76
(PID.TID 0000.0001)      cg2d_last_res =   8.62553797699471E-12
(PID.TID 0000.0001) // =======================================================
(PID.TID 0000.0001) // Begin MONITOR dynamic field statistics
(PID.TID 0000.0001) // =======================================================
(PID.TID 0000.0001) %MON time_tsnumber                =                  1234
(PID.TID 0000.0001) %MON time_secondsf                =   1.2340000000000E+05
(PID.TID 0000.0001) %MON dynstat_eta_max              =   5.7988837496810E+00
(PID.TID 0000.0001) %MON dynstat_eta_min              =  -1.4170123941311E+01
(PID.TID 0000.0001) %MON dynstat_eta_mean             =  -2.5238073641839E+00
(PID.TID 0000.0001) %MON dynstat_eta_sd               =   4.9410006024739E+00
(PID.TID 0000.0001) %MON dynstat_eta_del2             =   1.9058847282192E-01
(PID.TID 0000.0001) %MON dynstat_uvel_max             =   7.9283787415010E-03
(PID.TID 0000.0001) %MON dynstat_uvel_min             =  -3.6452040643879E-02
(PID.TID 0000.0001) %MON dynstat_uvel_mean            =   2.8468993046146E-09
(PID.TID 0000.0001) %MON dynstat_uvel_sd              =   1.0120489990712E-03
(PID.TID 0000.0001) %MON dynstat_uvel_del2            =   1.5509603871196E-06
(PID.TID 0000.0001) %MON dynstat_vvel_max             =   2.4588963981775E-02
(PID.TID 0000.0001) %MON dynstat_vvel_min             =  -9.4769155538703E-03
(PID.TID 0000.0001) %MON dynstat_vvel_mean            =  -5.6703560041788E-08
(PID.TID 0000.0001) %MON dynstat_vvel_sd              =   4.7625000073521E-04
(PID.TID 0000.0001) %MON dynstat_vvel_del2            =   1.2676011930417E-06
(PID.TID 0000.0001) %MON dynstat_wvel_max             =   1.4719545562798E-03
(PID.TID 0000.0001) %MON dynstat_wvel_min             =  -1.8310548827386E-03
(PID.TID 0000.0001) %MON dynstat_wvel_mean            =   3.1977386557715E-10
(PID.TID 0000.0001) %MON dynstat_wvel_sd              =   2.4110906579465E-05
(PID.TID 0000.0001) %MON dynstat_wvel_del2            =   9.8036946753056E-08
(PID.TID 0000.0001) %MON dynstat_theta_max            =   1.2000000000000E+00
(PID.TID 0000.0001) %MON dynstat_theta_min            =  -1.0000000000000E+00
(PID.TID 0000.0001) %MON dynstat_theta_mean           =   5.6507303863486E-01
(PID.TID 0000.0001) %MON dynstat_theta_sd             =   8.4891412261559E-01
(PID.TID 0000.0001) %MON dynstat_theta_del2           =   3.5336915260707E-06
(PID.TID 0000.0001) %MON dynstat_salt_max             =   3.4700000000000E+01
(PID.TID 0000.0001) %MON dynstat_salt_min             =   3.4000000000000E+01
(PID.TID 0000.0001) %MON dynstat_salt_mean            =   3.4497943251478E+01
(PID.TID 0000.0001) %MON dynstat_salt_sd              =   2.7010309349441E-01
(PID.TID 0000.0001) %MON dynstat_salt_del2            =   1.3985095771520E-06
(PID.TID 0000.0001) %MON advcfl_uvel_max              =   3.6452040643879E-03
(PID.TID 0000.0001) %MON advcfl_vvel_max              =   2.4588963981775E-03
(PID.TID 0000.0001) %MON advcfl_wvel_max              =   9.1552744136928E-03
(PID.TID 0000.0001) %MON advcfl_W_hf_max              =   9.1552744136928E-03
(PID.TID 0000.0001) %MON pe_b_mean                    =  -6.8188555965335E-01
(PID.TID 0000.0001) %MON ke_max                       =   5.6149158040160E-04
(PID.TID 0000.0001) %MON ke_mean                      =   6.1589816394385E-07
(PID.TID 0000.0001) %MON ke_vol                       =   4.6183085411242E+12
(PID.TID 0000.0001) // =======================================================
(PID.TID 0000.0001) // End MONITOR dynamic field statistics
(PID.TID 0000.0001) // =======================================================
(PID.TID 0000.0001) // =======================================================
(PID.TID 0000.0001) // Begin OBCS MONITOR field statistics
(PID.TID 0000.0001) // =======================================================
(PID.TID 0000.0001) %MON obc_N_vVel_max               =  -8.4456162794797E-08
(PID.TID 0000.0001) %MON obc_N_vVel_min               =  -8.4456162794799E-08
(PID.TID 0000.0001) %MON obc_N_vVel_mean              =  -8.4456162794799E-08
(PID.TID 0000.0001) %MON obc_N_vVel_sd                =  -9.7818752247405E-29
(PID.TID 0000.0001) %MON obc_N_vVel_Int               =  -5.5741067444567E+00
(PID.TID 0000.0001) // =======================================================
(PID.TID 0000.0001) // End OBCS MONITOR field statistics
(PID.TID 0000.0001) // =======================================================
 cg2d: Sum(rhs),rhsMax =   3.00821823293878E+00  4.53042944158106E+02
(PID.TID 0000.0001)      cg2d_init_res =   4.04376231184429E-06
(PID.TID 0000.0001)      cg2d_iters(min,last) =      -1      76
(PID.TID 0000.0001)      cg2d_last_res =   8.64706053155616E-12
(PID.TID 0000.0001) // =======================================================
(PID.TID 0000.0001) // Begin MONITOR dynamic field statistics
(PID.TID 0000.0001) // =======================================================
(PID.TID 0000.0001) %MON time_tsnumber                =                  1235
(PID.TID 0000.0001) %MON time_secondsf                =   1.2350000000000E+05
(PID.TID 0000.0001) %MON dynstat_eta_max              =   5.7988867037920E+00
(PID.TID 0000.0001) %MON dynstat_eta_min              =  -1.4170108562329E+01
(PID.TID 0000.0001) %MON dynstat_eta_mean             =  -2.5238000831864E+00
(PID.TID 0000.0001) %MON dynstat_eta_sd               =   4.9409985004728E+00
(PID.TID 0000.0001) %MON dynstat_eta_del2             =   1.9058849428566E-01
(PID.TID 0000.0001) %MON dynstat_uvel_max             =   7.9471459272602E-03
(PID.TID 0000.0001) %MON dynstat_uvel_min             =  -3.6526955303438E-02
(PID.TID 0000.0001) %MON dynstat_uvel_mean            =   2.7873470740110E-09
(PID.TID 0000.0001) %MON dynstat_uvel_sd              =   1.0144619342030E-03
(PID.TID 0000.0001) %MON dynstat_uvel_del2            =   1.5547085729520E-06
(PID.TID 0000.0001) %MON dynstat_vvel_max             =   2.4630036187014E-02
(PID.TID 0000.0001) %MON dynstat_vvel_min             =  -9.4969136657681E-03
(PID.TID 0000.0001) %MON dynstat_vvel_mean            =  -6.2141294123151E-08
(PID.TID 0000.0001) %MON dynstat_vvel_sd              =   4.7719825689535E-04
(PID.TID 0000.0001) %MON dynstat_vvel_del2            =   1.2701398916891E-06
(PID.TID 0000.0001) %MON dynstat_wvel_max             =   1.4750120209868E-03
(PID.TID 0000.0001) %MON dynstat_wvel_min             =  -1.8356850298570E-03
(PID.TID 0000.0001) %MON dynstat_wvel_mean            =   3.3351406727606E-10
(PID.TID 0000.0001) %MON dynstat_wvel_sd              =   2.4155449561051E-05
(PID.TID 0000.0001) %MON dynstat_wvel_del2            =   9.8195167288583E-08
(PID.TID 0000.0001) %MON dynstat_theta_max            =   1.2000000000000E+00
(PID.TID 0000.0001) %MON dynstat_theta_min            =  -1.0000000000000E+00
(PID.TID 0000.0001) %MON dynstat_theta_mean           =   5.6507224149004E-01
(PID.TID 0000.0001) %MON dynstat_theta_sd             =   8.4891376446407E-01
(PID.TID 0000.0001) %MON dynstat_theta_del2           =   3.5405745789641E-06
(PID.TID 0000.0001) %MON dynstat_salt_max             =   3.4700000000000E+01
(PID.TID 0000.0001) %MON dynstat_salt_min             =   3.4000000000000E+01
(PID.TID 0000.0001) %MON dynstat_salt_mean            =   3.4497942933023E+01
(PID.TID 0000.0001) %MON dynstat_salt_sd              =   2.7010295822232E-01
(PID.TID 0000.0001) %MON dynstat_salt_del2            =   1.4012410275651E-06
(PID.TID 0000.0001) %MON advcfl_uvel_max              =   3.6526955303438E-03
(PID.TID 0000.0001) %MON advcfl_vvel_max              =   2.4630036187014E-03
(PID.TID 0000.0001) %MON advcfl_wvel_max              =   9.1784251492849E-03
(PID.TID 0000.0001) %MON advcfl_W_hf_max              =   9.1784251492849E-03
(PID.TID 0000.0001) %MON pe_b_mean                    =  -6.8188339639988E-01
(PID.TID 0000.0001) %MON ke_max                       =   5.6433387214698E-04
(PID.TID 0000.0001) %MON ke_mean                      =   6.1874916685850E-07
(PID.TID 0000.0001) %MON ke_vol                       =   4.6183085842567E+12
(PID.TID 0000.0001) // =======================================================
(PID.TID 0000.0001) // End MONITOR dynamic field statistics
(PID.TID 0000.0001) // =======================================================
(PID.TID 0000.0001) // =======================================================
(PID.TID 0000.0001) // Begin OBCS MONITOR field statistics
(PID.TID 0000.0001) // =======================================================
(PID.TID 0000.0001) %MON obc_N_vVel_max               =  -9.0841632343296E-08
(PID.TID 0000.0001) %MON obc_N_vVel_min               =  -9.0841632343297E-08
(PID.TID 0000.0001) %MON obc_N_vVel_mean              =  -9.0841632343297E-08
(PID.TID 0000.0001) %MON obc_N_vVel_sd                =   1.1783018260144E-14
(PID.TID 0000.0001) %MON obc_N_vVel_Int               =  -5.9955477346576E+00
(PID.TID 0000.0001) // =======================================================
(PID.TID 0000.0001) // End OBCS MONITOR field statistics
(PID.TID 0000.0001) // =======================================================
 cg2d: Sum(rhs),rhsMax =   3.00820966741007E+00  4.53042923929901E+02
(PID.TID 0000.0001)      cg2d_init_res =   4.05027117038856E-06
(PID.TID 0000.0001)      cg2d_iters(min,last) =      -1      76
(PID.TID 0000.0001)      cg2d_last_res =   8.66832364795756E-12
(PID.TID 0000.0001) // =======================================================
(PID.TID 0000.0001) // Begin MONITOR dynamic field statistics
(PID.TID 0000.0001) // =======================================================
(PID.TID 0000.0001) %MON time_tsnumber                =                  1236
(PID.TID 0000.0001) %MON time_secondsf                =   1.2360000000000E+05
(PID.TID 0000.0001) %MON dynstat_eta_max              =   5.7988896643192E+00
(PID.TID 0000.0001) %MON dynstat_eta_min              =  -1.4170093150681E+01
(PID.TID 0000.0001) %MON dynstat_eta_mean             =  -2.5237927842919E+00
(PID.TID 0000.0001) %MON dynstat_eta_sd               =   4.9409963946566E+00
(PID.TID 0000.0001) %MON dynstat_eta_del2             =   1.9058851578990E-01
(PID.TID 0000.0001) %MON dynstat_uvel_max             =   7.9659465518906E-03
(PID.TID 0000.0001) %MON dynstat_uvel_min             =  -3.6601913841346E-02
(PID.TID 0000.0001) %MON dynstat_uvel_mean            =   2.7244230045545E-09
(PID.TID 0000.0001) %MON dynstat_uvel_sd              =   1.0168798099755E-03
(PID.TID 0000.0001) %MON dynstat_uvel_del2            =   1.5584652043875E-06
(PID.TID 0000.0001) %MON dynstat_vvel_max             =   2.4671123930486E-02
(PID.TID 0000.0001) %MON dynstat_vvel_min             =  -9.5169304029643E-03
(PID.TID 0000.0001) %MON dynstat_vvel_mean            =  -6.5899362381166E-08
(PID.TID 0000.0001) %MON dynstat_vvel_sd              =   4.7814824884913E-04
(PID.TID 0000.0001) %MON dynstat_vvel_del2            =   1.2726820932434E-06
(PID.TID 0000.0001) %MON dynstat_wvel_max             =   1.4780726375269E-03
(PID.TID 0000.0001) %MON dynstat_wvel_min             =  -1.8403197694208E-03
(PID.TID 0000.0001) %MON dynstat_wvel_mean            =   3.4741010742805E-10
(PID.TID 0000.0001) %MON dynstat_wvel_sd              =   2.4199505353209E-05
(PID.TID 0000.0001) %MON dynstat_wvel_del2            =   9.8348756675951E-08
(PID.TID 0000.0001) %MON dynstat_theta_max            =   1.2000000000000E+00
(PID.TID 0000.0001) %MON dynstat_theta_min            =  -1.0000000000000E+00
(PID.TID 0000.0001) %MON dynstat_theta_mean           =   5.6507144295542E-01
(PID.TID 0000.0001) %MON dynstat_theta_sd             =   8.4891340563230E-01
(PID.TID 0000.0001) %MON dynstat_theta_del2           =   3.5474678743267E-06
(PID.TID 0000.0001) %MON dynstat_salt_max             =   3.4700000000000E+01
(PID.TID 0000.0001) %MON dynstat_salt_min             =   3.4000000000000E+01
(PID.TID 0000.0001) %MON dynstat_salt_mean            =   3.4497942614011E+01
(PID.TID 0000.0001) %MON dynstat_salt_sd              =   2.7010282269167E-01
(PID.TID 0000.0001) %MON dynstat_salt_del2            =   1.4039763151328E-06
(PID.TID 0000.0001) %MON advcfl_uvel_max              =   3.6601913841346E-03
(PID.TID 0000.0001) %MON advcfl_vvel_max              =   2.4671123930486E-03
(PID.TID 0000.0001) %MON advcfl_wvel_max              =   9.2015988471039E-03
(PID.TID 0000.0001) %MON advcfl_W_hf_max              =   9.2015988471039E-03
(PID.TID 0000.0001) %MON pe_b_mean                    =  -6.8188122855295E-01
(PID.TID 0000.0001) %MON ke_max                       =   5.6718829464393E-04
(PID.TID 0000.0001) %MON ke_mean                      =   6.2161254118660E-07
(PID.TID 0000.0001) %MON ke_vol                       =   4.6183086275059E+12
(PID.TID 0000.0001) // =======================================================
(PID.TID 0000.0001) // End MONITOR dynamic field statistics
(PID.TID 0000.0001) // =======================================================
(PID.TID 0000.0001) // =======================================================
(PID.TID 0000.0001) // Begin OBCS MONITOR field statistics
(PID.TID 0000.0001) // =======================================================
(PID.TID 0000.0001) %MON obc_N_vVel_max               =  -9.5654303206466E-08
(PID.TID 0000.0001) %MON obc_N_vVel_min               =  -9.5654303206468E-08
(PID.TID 0000.0001) %MON obc_N_vVel_mean              =  -9.5654303206466E-08
(PID.TID 0000.0001) %MON obc_N_vVel_sd                =   1.4485751647353E-14
(PID.TID 0000.0001) %MON obc_N_vVel_Int               =  -6.3131840116268E+00
(PID.TID 0000.0001) // =======================================================
(PID.TID 0000.0001) // End OBCS MONITOR field statistics
(PID.TID 0000.0001) // =======================================================
 cg2d: Sum(rhs),rhsMax =   3.00820108066750E+00  4.53042904006007E+02
(PID.TID 0000.0001)      cg2d_init_res =   4.05659648039969E-06
(PID.TID 0000.0001)      cg2d_iters(min,last) =      -1      76
(PID.TID 0000.0001)      cg2d_last_res =   8.68928329759198E-12
(PID.TID 0000.0001) // =======================================================
(PID.TID 0000.0001) // Begin MONITOR dynamic field statistics
(PID.TID 0000.0001) // =======================================================
(PID.TID 0000.0001) %MON time_tsnumber                =                  1237
(PID.TID 0000.0001) %MON time_secondsf                =   1.2370000000000E+05
(PID.TID 0000.0001) %MON dynstat_eta_max              =   5.7988926281807E+00
(PID.TID 0000.0001) %MON dynstat_eta_min              =  -1.4170077709766E+01
(PID.TID 0000.0001) %MON dynstat_eta_mean             =  -2.5237854692956E+00
(PID.TID 0000.0001) %MON dynstat_eta_sd               =   4.9409942856707E+00
(PID.TID 0000.0001) %MON dynstat_eta_del2             =   1.9058853733642E-01
(PID.TID 0000.0001) %MON dynstat_uvel_max             =   7.9847805927029E-03
(PID.TID 0000.0001) %MON dynstat_uvel_min             =  -3.6684457856833E-02
(PID.TID 0000.0001) %MON dynstat_uvel_mean            =   2.6593014618968E-09
(PID.TID 0000.0001) %MON dynstat_uvel_sd              =   1.0193026353413E-03
(PID.TID 0000.0001) %MON dynstat_uvel_del2            =   1.5622303005767E-06
(PID.TID 0000.0001) %MON dynstat_vvel_max             =   2.4712227122836E-02
(PID.TID 0000.0001) %MON dynstat_vvel_min             =  -9.5369657115727E-03
(PID.TID 0000.0001) %MON dynstat_vvel_mean            =  -6.7929569863080E-08
(PID.TID 0000.0001) %MON dynstat_vvel_sd              =   4.7910008303847E-04
(PID.TID 0000.0001) %MON dynstat_vvel_del2            =   1.2752283539354E-06
(PID.TID 0000.0001) %MON dynstat_wvel_max             =   1.4811364027919E-03
(PID.TID 0000.0001) %MON dynstat_wvel_min             =  -1.8449590298190E-03
(PID.TID 0000.0001) %MON dynstat_wvel_mean            =   3.6124785562463E-10
(PID.TID 0000.0001) %MON dynstat_wvel_sd              =   2.4243568388379E-05
(PID.TID 0000.0001) %MON dynstat_wvel_del2            =   9.8500133511545E-08
(PID.TID 0000.0001) %MON dynstat_theta_max            =   1.2000000000000E+00
(PID.TID 0000.0001) %MON dynstat_theta_min            =  -1.0000000000000E+00
(PID.TID 0000.0001) %MON dynstat_theta_mean           =   5.6507064302912E-01
(PID.TID 0000.0001) %MON dynstat_theta_sd             =   8.4891304611955E-01
(PID.TID 0000.0001) %MON dynstat_theta_del2           =   3.5543703859197E-06
(PID.TID 0000.0001) %MON dynstat_salt_max             =   3.4700000000000E+01
(PID.TID 0000.0001) %MON dynstat_salt_min             =   3.4000000000000E+01
(PID.TID 0000.0001) %MON dynstat_salt_mean            =   3.4497942294442E+01
(PID.TID 0000.0001) %MON dynstat_salt_sd              =   2.7010268690241E-01
(PID.TID 0000.0001) %MON dynstat_salt_del2            =   1.4067151859745E-06
(PID.TID 0000.0001) %MON advcfl_uvel_max              =   3.6684457856833E-03
(PID.TID 0000.0001) %MON advcfl_vvel_max              =   2.4712227122836E-03
(PID.TID 0000.0001) %MON advcfl_wvel_max              =   9.2247951490948E-03
(PID.TID 0000.0001) %MON advcfl_W_hf_max              =   9.2247951490948E-03
(PID.TID 0000.0001) %MON pe_b_mean                    =  -6.8187905647857E-01
(PID.TID 0000.0001) %MON ke_max                       =   5.7005489028537E-04
(PID.TID 0000.0001) %MON ke_mean                      =   6.2448838696540E-07
(PID.TID 0000.0001) %MON ke_vol                       =   4.6183086708613E+12
(PID.TID 0000.0001) // =======================================================
(PID.TID 0000.0001) // End MONITOR dynamic field statistics
(PID.TID 0000.0001) // =======================================================
(PID.TID 0000.0001) // =======================================================
(PID.TID 0000.0001) // Begin OBCS MONITOR field statistics
(PID.TID 0000.0001) // =======================================================
(PID.TID 0000.0001) %MON obc_N_vVel_max               =  -9.8829501039980E-08
(PID.TID 0000.0001) %MON obc_N_vVel_min               =  -9.8829501039982E-08
(PID.TID 0000.0001) %MON obc_N_vVel_mean              =  -9.8829501039982E-08
(PID.TID 0000.0001) %MON obc_N_vVel_sd                =  -2.9976714398398E-28
(PID.TID 0000.0001) %MON obc_N_vVel_Int               =  -6.5227470686388E+00
(PID.TID 0000.0001) // =======================================================
(PID.TID 0000.0001) // End OBCS MONITOR field statistics
(PID.TID 0000.0001) // =======================================================
 cg2d: Sum(rhs),rhsMax =   3.00819247447054E+00  4.53042884451410E+02
(PID.TID 0000.0001)      cg2d_init_res =   4.06277564731302E-06
(PID.TID 0000.0001)      cg2d_iters(min,last) =      -1      76
(PID.TID 0000.0001)      cg2d_last_res =   8.70989250742554E-12
(PID.TID 0000.0001) // =======================================================
(PID.TID 0000.0001) // Begin MONITOR dynamic field statistics
(PID.TID 0000.0001) // =======================================================
(PID.TID 0000.0001) %MON time_tsnumber                =                  1238
(PID.TID 0000.0001) %MON time_secondsf                =   1.2380000000000E+05
(PID.TID 0000.0001) %MON dynstat_eta_max              =   5.7988955922779E+00
(PID.TID 0000.0001) %MON dynstat_eta_min              =  -1.4170062243009E+01
(PID.TID 0000.0001) %MON dynstat_eta_mean             =  -2.5237781400355E+00
(PID.TID 0000.0001) %MON dynstat_eta_sd               =   4.9409921741478E+00
(PID.TID 0000.0001) %MON dynstat_eta_del2             =   1.9058855892691E-01
(PID.TID 0000.0001) %MON dynstat_uvel_max             =   8.0036480119494E-03
(PID.TID 0000.0001) %MON dynstat_uvel_min             =  -3.6767246446799E-02
(PID.TID 0000.0001) %MON dynstat_uvel_mean            =   2.5931849701348E-09
(PID.TID 0000.0001) %MON dynstat_uvel_sd              =   1.0217304191895E-03
(PID.TID 0000.0001) %MON dynstat_uvel_del2            =   1.5660038807886E-06
(PID.TID 0000.0001) %MON dynstat_vvel_max             =   2.4753345671408E-02
(PID.TID 0000.0001) %MON dynstat_vvel_min             =  -9.5570195400230E-03
(PID.TID 0000.0001) %MON dynstat_vvel_mean            =  -6.8212023015132E-08
(PID.TID 0000.0001) %MON dynstat_vvel_sd              =   4.8005386499323E-04
(PID.TID 0000.0001) %MON dynstat_vvel_del2            =   1.2777792228488E-06
(PID.TID 0000.0001) %MON dynstat_wvel_max             =   1.4842033136570E-03
(PID.TID 0000.0001) %MON dynstat_wvel_min             =  -1.8496027613403E-03
(PID.TID 0000.0001) %MON dynstat_wvel_mean            =   3.7481588606484E-10
(PID.TID 0000.0001) %MON dynstat_wvel_sd              =   2.4288129638579E-05
(PID.TID 0000.0001) %MON dynstat_wvel_del2            =   9.8651860940629E-08
(PID.TID 0000.0001) %MON dynstat_theta_max            =   1.2000000000000E+00
(PID.TID 0000.0001) %MON dynstat_theta_min            =  -1.0000000000000E+00
(PID.TID 0000.0001) %MON dynstat_theta_mean           =   5.6506984170935E-01
(PID.TID 0000.0001) %MON dynstat_theta_sd             =   8.4891268592449E-01
(PID.TID 0000.0001) %MON dynstat_theta_del2           =   3.5612811538637E-06
(PID.TID 0000.0001) %MON dynstat_salt_max             =   3.4700000000000E+01
(PID.TID 0000.0001) %MON dynstat_salt_min             =   3.4000000000000E+01
(PID.TID 0000.0001) %MON dynstat_salt_mean            =   3.4497941974315E+01
(PID.TID 0000.0001) %MON dynstat_salt_sd              =   2.7010255085379E-01
(PID.TID 0000.0001) %MON dynstat_salt_del2            =   1.4094573858404E-06
(PID.TID 0000.0001) %MON advcfl_uvel_max              =   3.6767246446799E-03
(PID.TID 0000.0001) %MON advcfl_vvel_max              =   2.4753345671408E-03
(PID.TID 0000.0001) %MON advcfl_wvel_max              =   9.2480138067016E-03
(PID.TID 0000.0001) %MON advcfl_W_hf_max              =   9.2480138067016E-03
(PID.TID 0000.0001) %MON pe_b_mean                    =  -6.8187688054552E-01
(PID.TID 0000.0001) %MON ke_max                       =   5.7293370153364E-04
(PID.TID 0000.0001) %MON ke_mean                      =   6.2737680431326E-07
(PID.TID 0000.0001) %MON ke_vol                       =   4.6183087143124E+12
(PID.TID 0000.0001) // =======================================================
(PID.TID 0000.0001) // End MONITOR dynamic field statistics
(PID.TID 0000.0001) // =======================================================
(PID.TID 0000.0001) // =======================================================
(PID.TID 0000.0001) // Begin OBCS MONITOR field statistics
(PID.TID 0000.0001) // =======================================================
(PID.TID 0000.0001) %MON obc_N_vVel_max               =  -1.0032946756097E-07
(PID.TID 0000.0001) %MON obc_N_vVel_min               =  -1.0032946756098E-07
(PID.TID 0000.0001) %MON obc_N_vVel_mean              =  -1.0032946756098E-07
(PID.TID 0000.0001) %MON obc_N_vVel_sd                =  -3.6445373821211E-28
(PID.TID 0000.0001) %MON obc_N_vVel_Int               =  -6.6217448590244E+00
(PID.TID 0000.0001) // =======================================================
(PID.TID 0000.0001) // End OBCS MONITOR field statistics
(PID.TID 0000.0001) // =======================================================
 cg2d: Sum(rhs),rhsMax =   3.00818385063579E+00  4.53042865324626E+02
(PID.TID 0000.0001)      cg2d_init_res =   4.06884756885018E-06
(PID.TID 0000.0001)      cg2d_iters(min,last) =      -1      76
(PID.TID 0000.0001)      cg2d_last_res =   8.73014162462766E-12
(PID.TID 0000.0001) // =======================================================
(PID.TID 0000.0001) // Begin MONITOR dynamic field statistics
(PID.TID 0000.0001) // =======================================================
(PID.TID 0000.0001) %MON time_tsnumber                =                  1239
(PID.TID 0000.0001) %MON time_secondsf                =   1.2390000000000E+05
(PID.TID 0000.0001) %MON dynstat_eta_max              =   5.7988985535269E+00
(PID.TID 0000.0001) %MON dynstat_eta_min              =  -1.4170046753810E+01
(PID.TID 0000.0001) %MON dynstat_eta_mean             =  -2.5237707983617E+00
(PID.TID 0000.0001) %MON dynstat_eta_sd               =   4.9409900607007E+00
(PID.TID 0000.0001) %MON dynstat_eta_del2             =   1.9058858056312E-01
(PID.TID 0000.0001) %MON dynstat_uvel_max             =   8.0225487700938E-03
(PID.TID 0000.0001) %MON dynstat_uvel_min             =  -3.6850124255969E-02
(PID.TID 0000.0001) %MON dynstat_uvel_mean            =   2.5272882190463E-09
(PID.TID 0000.0001) %MON dynstat_uvel_sd              =   1.0241631703426E-03
(PID.TID 0000.0001) %MON dynstat_uvel_del2            =   1.5697859630851E-06
(PID.TID 0000.0001) %MON dynstat_vvel_max             =   2.4794479480184E-02
(PID.TID 0000.0001) %MON dynstat_vvel_min             =  -9.5770918424307E-03
(PID.TID 0000.0001) %MON dynstat_vvel_mean            =  -6.6755264960145E-08
(PID.TID 0000.0001) %MON dynstat_vvel_sd              =   4.8100969228884E-04
(PID.TID 0000.0001) %MON dynstat_vvel_del2            =   1.2803351966297E-06
(PID.TID 0000.0001) %MON dynstat_wvel_max             =   1.4872733670168E-03
(PID.TID 0000.0001) %MON dynstat_wvel_min             =  -1.8542509089589E-03
(PID.TID 0000.0001) %MON dynstat_wvel_mean            =   3.8790809277561E-10
(PID.TID 0000.0001) %MON dynstat_wvel_sd              =   2.4333642651628E-05
(PID.TID 0000.0001) %MON dynstat_wvel_del2            =   9.8806450028431E-08
(PID.TID 0000.0001) %MON dynstat_theta_max            =   1.2000000000000E+00
(PID.TID 0000.0001) %MON dynstat_theta_min            =  -1.0000000000000E+00
(PID.TID 0000.0001) %MON dynstat_theta_mean           =   5.6506903899437E-01
(PID.TID 0000.0001) %MON dynstat_theta_sd             =   8.4891232504548E-01
(PID.TID 0000.0001) %MON dynstat_theta_del2           =   3.5681992874768E-06
(PID.TID 0000.0001) %MON dynstat_salt_max             =   3.4700000000000E+01
(PID.TID 0000.0001) %MON dynstat_salt_min             =   3.4000000000000E+01
(PID.TID 0000.0001) %MON dynstat_salt_mean            =   3.4497941653630E+01
(PID.TID 0000.0001) %MON dynstat_salt_sd              =   2.7010241454557E-01
(PID.TID 0000.0001) %MON dynstat_salt_del2            =   1.4122026712832E-06
(PID.TID 0000.0001) %MON advcfl_uvel_max              =   3.6850124255969E-03
(PID.TID 0000.0001) %MON advcfl_vvel_max              =   2.4794479480184E-03
(PID.TID 0000.0001) %MON advcfl_wvel_max              =   9.2712545447945E-03
(PID.TID 0000.0001) %MON advcfl_W_hf_max              =   9.2712545447945E-03
(PID.TID 0000.0001) %MON pe_b_mean                    =  -6.8187470111906E-01
(PID.TID 0000.0001) %MON ke_max                       =   5.7582477093474E-04
(PID.TID 0000.0001) %MON ke_mean                      =   6.3027789003691E-07
(PID.TID 0000.0001) %MON ke_vol                       =   4.6183087578482E+12
(PID.TID 0000.0001) // =======================================================
(PID.TID 0000.0001) // End MONITOR dynamic field statistics
(PID.TID 0000.0001) // =======================================================
(PID.TID 0000.0001) // =======================================================
(PID.TID 0000.0001) // Begin OBCS MONITOR field statistics
(PID.TID 0000.0001) // =======================================================
(PID.TID 0000.0001) %MON obc_N_vVel_max               =  -1.0014373590159E-07
(PID.TID 0000.0001) %MON obc_N_vVel_min               =  -1.0014373590159E-07
(PID.TID 0000.0001) %MON obc_N_vVel_mean              =  -1.0014373590159E-07
(PID.TID 0000.0001) %MON obc_N_vVel_sd                =   2.6496909360276E-14
(PID.TID 0000.0001) %MON obc_N_vVel_Int               =  -6.6094865695051E+00
(PID.TID 0000.0001) // =======================================================
(PID.TID 0000.0001) // End OBCS MONITOR field statistics
(PID.TID 0000.0001) // =======================================================
 cg2d: Sum(rhs),rhsMax =   3.00817521100763E+00  4.53042846676692E+02
(PID.TID 0000.0001)      cg2d_init_res =   4.07485267114524E-06
(PID.TID 0000.0001)      cg2d_iters(min,last) =      -1      76
(PID.TID 0000.0001)      cg2d_last_res =   8.74999972283702E-12
(PID.TID 0000.0001) // =======================================================
(PID.TID 0000.0001) // Begin MONITOR dynamic field statistics
(PID.TID 0000.0001) // =======================================================
(PID.TID 0000.0001) %MON time_tsnumber                =                  1240
(PID.TID 0000.0001) %MON time_secondsf                =   1.2400000000000E+05
(PID.TID 0000.0001) %MON dynstat_eta_max              =   5.7989015089227E+00
(PID.TID 0000.0001) %MON dynstat_eta_min              =  -1.4170031245474E+01
(PID.TID 0000.0001) %MON dynstat_eta_mean             =  -2.5237634461058E+00
(PID.TID 0000.0001) %MON dynstat_eta_sd               =   4.9409879459088E+00
(PID.TID 0000.0001) %MON dynstat_eta_del2             =   1.9058860224654E-01
(PID.TID 0000.0001) %MON dynstat_uvel_max             =   8.0414828282587E-03
(PID.TID 0000.0001) %MON dynstat_uvel_min             =  -3.6933091250629E-02
(PID.TID 0000.0001) %MON dynstat_uvel_mean            =   2.4628166767237E-09
(PID.TID 0000.0001) %MON dynstat_uvel_sd              =   1.0266008976135E-03
(PID.TID 0000.0001) %MON dynstat_uvel_del2            =   1.5735765663231E-06
(PID.TID 0000.0001) %MON dynstat_vvel_max             =   2.4835628449647E-02
(PID.TID 0000.0001) %MON dynstat_vvel_min             =  -9.5971825762056E-03
(PID.TID 0000.0001) %MON dynstat_vvel_mean            =  -6.3595943760428E-08
(PID.TID 0000.0001) %MON dynstat_vvel_sd              =   4.8196764828170E-04
(PID.TID 0000.0001) %MON dynstat_vvel_del2            =   1.2828966796198E-06
(PID.TID 0000.0001) %MON dynstat_wvel_max             =   1.4903465597658E-03
(PID.TID 0000.0001) %MON dynstat_wvel_min             =  -1.8589034205712E-03
(PID.TID 0000.0001) %MON dynstat_wvel_mean            =   4.0032702076628E-10
(PID.TID 0000.0001) %MON dynstat_wvel_sd              =   2.4380492907281E-05
(PID.TID 0000.0001) %MON dynstat_wvel_del2            =   9.8966173586677E-08
(PID.TID 0000.0001) %MON dynstat_theta_max            =   1.2000000000000E+00
(PID.TID 0000.0001) %MON dynstat_theta_min            =  -1.0000000000000E+00
(PID.TID 0000.0001) %MON dynstat_theta_mean           =   5.6506823488243E-01
(PID.TID 0000.0001) %MON dynstat_theta_sd             =   8.4891196348223E-01
(PID.TID 0000.0001) %MON dynstat_theta_del2           =   3.5751240075965E-06
(PID.TID 0000.0001) %MON dynstat_salt_max             =   3.4700000000000E+01
(PID.TID 0000.0001) %MON dynstat_salt_min             =   3.4000000000000E+01
(PID.TID 0000.0001) %MON dynstat_salt_mean            =   3.4497941332384E+01
(PID.TID 0000.0001) %MON dynstat_salt_sd              =   2.7010227797739E-01
(PID.TID 0000.0001) %MON dynstat_salt_del2            =   1.4149508328076E-06
(PID.TID 0000.0001) %MON advcfl_uvel_max              =   3.6933091250629E-03
(PID.TID 0000.0001) %MON advcfl_vvel_max              =   2.4835628449647E-03
(PID.TID 0000.0001) %MON advcfl_wvel_max              =   9.2945171028560E-03
(PID.TID 0000.0001) %MON advcfl_W_hf_max              =   9.2945171028560E-03
(PID.TID 0000.0001) %MON pe_b_mean                    =  -6.8187251855498E-01
(PID.TID 0000.0001) %MON ke_max                       =   5.7872814113226E-04
(PID.TID 0000.0001) %MON ke_mean                      =   6.3319173463292E-07
(PID.TID 0000.0001) %MON ke_vol                       =   4.6183088014577E+12
(PID.TID 0000.0001) // =======================================================
(PID.TID 0000.0001) // End MONITOR dynamic field statistics
(PID.TID 0000.0001) // =======================================================
(PID.TID 0000.0001) // =======================================================
(PID.TID 0000.0001) // Begin OBCS MONITOR field statistics
(PID.TID 0000.0001) // =======================================================
(PID.TID 0000.0001) %MON obc_N_vVel_max               =  -9.8289135139731E-08
(PID.TID 0000.0001) %MON obc_N_vVel_min               =  -9.8289135139733E-08
(PID.TID 0000.0001) %MON obc_N_vVel_mean              =  -9.8289135139733E-08
(PID.TID 0000.0001) %MON obc_N_vVel_sd                =  -2.4770232423940E-28
(PID.TID 0000.0001) %MON obc_N_vVel_Int               =  -6.4870829192224E+00
(PID.TID 0000.0001) // =======================================================
(PID.TID 0000.0001) // End OBCS MONITOR field statistics
(PID.TID 0000.0001) // =======================================================
 cg2d: Sum(rhs),rhsMax =   3.00816655742574E+00  4.53042828550477E+02
(PID.TID 0000.0001)      cg2d_init_res =   4.08082824351903E-06
(PID.TID 0000.0001)      cg2d_iters(min,last) =      -1      76
(PID.TID 0000.0001)      cg2d_last_res =   8.76946011608775E-12
(PID.TID 0000.0001) // =======================================================
(PID.TID 0000.0001) // Begin MONITOR dynamic field statistics
(PID.TID 0000.0001) // =======================================================
(PID.TID 0000.0001) %MON time_tsnumber                =                  1241
(PID.TID 0000.0001) %MON time_secondsf                =   1.2410000000000E+05
(PID.TID 0000.0001) %MON dynstat_eta_max              =   5.7989044555807E+00
(PID.TID 0000.0001) %MON dynstat_eta_min              =  -1.4170015721172E+01
(PID.TID 0000.0001) %MON dynstat_eta_mean             =  -2.5237560850502E+00
(PID.TID 0000.0001) %MON dynstat_eta_sd               =   4.9409858303116E+00
(PID.TID 0000.0001) %MON dynstat_eta_del2             =   1.9058862397869E-01
(PID.TID 0000.0001) %MON dynstat_uvel_max             =   8.0604501469805E-03
(PID.TID 0000.0001) %MON dynstat_uvel_min             =  -3.7016147397877E-02
(PID.TID 0000.0001) %MON dynstat_uvel_mean            =   2.4009450759438E-09
(PID.TID 0000.0001) %MON dynstat_uvel_sd              =   1.0290436097885E-03
(PID.TID 0000.0001) %MON dynstat_uvel_del2            =   1.5773757091056E-06
(PID.TID 0000.0001) %MON dynstat_vvel_max             =   2.4876792476871E-02
(PID.TID 0000.0001) %MON dynstat_vvel_min             =  -9.6172917024604E-03
(PID.TID 0000.0001) %MON dynstat_vvel_mean            =  -5.8798033062329E-08
(PID.TID 0000.0001) %MON dynstat_vvel_sd              =   4.8292779684209E-04
(PID.TID 0000.0001) %MON dynstat_vvel_del2            =   1.2854639502653E-06
(PID.TID 0000.0001) %MON dynstat_wvel_max             =   1.4934228887753E-03
(PID.TID 0000.0001) %MON dynstat_wvel_min             =  -1.8635602432490E-03
(PID.TID 0000.0001) %MON dynstat_wvel_mean            =   4.1188746837379E-10
(PID.TID 0000.0001) %MON dynstat_wvel_sd              =   2.4428972335139E-05
(PID.TID 0000.0001) %MON dynstat_wvel_del2            =   9.9132900395221E-08
(PID.TID 0000.0001) %MON dynstat_theta_max            =   1.2000000000000E+00
(PID.TID 0000.0001) %MON dynstat_theta_min            =  -1.0000000000000E+00
(PID.TID 0000.0001) %MON dynstat_theta_mean           =   5.6506742937171E-01
(PID.TID 0000.0001) %MON dynstat_theta_sd             =   8.4891160123391E-01
(PID.TID 0000.0001) %MON dynstat_theta_del2           =   3.5820547051897E-06
(PID.TID 0000.0001) %MON dynstat_salt_max             =   3.4700000000000E+01
(PID.TID 0000.0001) %MON dynstat_salt_min             =   3.4000000000000E+01
(PID.TID 0000.0001) %MON dynstat_salt_mean            =   3.4497941010579E+01
(PID.TID 0000.0001) %MON dynstat_salt_sd              =   2.7010214114918E-01
(PID.TID 0000.0001) %MON dynstat_salt_del2            =   1.4177017032915E-06
(PID.TID 0000.0001) %MON advcfl_uvel_max              =   3.7016147397877E-03
(PID.TID 0000.0001) %MON advcfl_vvel_max              =   2.4876792476871E-03
(PID.TID 0000.0001) %MON advcfl_wvel_max              =   9.3178012162449E-03
(PID.TID 0000.0001) %MON advcfl_W_hf_max              =   9.3178012162449E-03
(PID.TID 0000.0001) %MON pe_b_mean                    =  -6.8187033319364E-01
(PID.TID 0000.0001) %MON ke_max                       =   5.8164385486243E-04
(PID.TID 0000.0001) %MON ke_mean                      =   6.3611841966114E-07
(PID.TID 0000.0001) %MON ke_vol                       =   4.6183088451301E+12
(PID.TID 0000.0001) // =======================================================
(PID.TID 0000.0001) // End MONITOR dynamic field statistics
(PID.TID 0000.0001) // =======================================================
(PID.TID 0000.0001) // =======================================================
(PID.TID 0000.0001) // Begin OBCS MONITOR field statistics
(PID.TID 0000.0001) // =======================================================
(PID.TID 0000.0001) %MON obc_N_vVel_max               =  -9.4809412298535E-08
(PID.TID 0000.0001) %MON obc_N_vVel_min               =  -9.4809412298535E-08
(PID.TID 0000.0001) %MON obc_N_vVel_mean              =  -9.4809412298535E-08
(PID.TID 0000.0001) %MON obc_N_vVel_sd                =   1.5072887603364E-14
(PID.TID 0000.0001) %MON obc_N_vVel_Int               =  -6.2574212117033E+00
(PID.TID 0000.0001) // =======================================================
(PID.TID 0000.0001) // End OBCS MONITOR field statistics
(PID.TID 0000.0001) // =======================================================
 cg2d: Sum(rhs),rhsMax =   3.00815789169688E+00  4.53042810980076E+02
(PID.TID 0000.0001)      cg2d_init_res =   4.08681052009119E-06
(PID.TID 0000.0001)      cg2d_iters(min,last) =      -1      76
(PID.TID 0000.0001)      cg2d_last_res =   8.78852143097025E-12
(PID.TID 0000.0001) // =======================================================
(PID.TID 0000.0001) // Begin MONITOR dynamic field statistics
(PID.TID 0000.0001) // =======================================================
(PID.TID 0000.0001) %MON time_tsnumber                =                  1242
(PID.TID 0000.0001) %MON time_secondsf                =   1.2420000000000E+05
(PID.TID 0000.0001) %MON dynstat_eta_max              =   5.7989073907939E+00
(PID.TID 0000.0001) %MON dynstat_eta_min              =  -1.4170000183873E+01
(PID.TID 0000.0001) %MON dynstat_eta_mean             =  -2.5237487169005E+00
(PID.TID 0000.0001) %MON dynstat_eta_sd               =   4.9409837143978E+00
(PID.TID 0000.0001) %MON dynstat_eta_del2             =   1.9058864576076E-01
(PID.TID 0000.0001) %MON dynstat_uvel_max             =   8.0794506861075E-03
(PID.TID 0000.0001) %MON dynstat_uvel_min             =  -3.7099292665681E-02
(PID.TID 0000.0001) %MON dynstat_uvel_mean            =   2.3428005587596E-09
(PID.TID 0000.0001) %MON dynstat_uvel_sd              =   1.0314913156323E-03
(PID.TID 0000.0001) %MON dynstat_uvel_del2            =   1.5811834097372E-06
(PID.TID 0000.0001) %MON dynstat_vvel_max             =   2.4917971455765E-02
(PID.TID 0000.0001) %MON dynstat_vvel_min             =  -9.6374191859161E-03
(PID.TID 0000.0001) %MON dynstat_vvel_mean            =  -5.2451607679116E-08
(PID.TID 0000.0001) %MON dynstat_vvel_sd              =   4.8389017855104E-04
(PID.TID 0000.0001) %MON dynstat_vvel_del2            =   1.2880371375511E-06
(PID.TID 0000.0001) %MON dynstat_wvel_max             =   1.4965023509327E-03
(PID.TID 0000.0001) %MON dynstat_wvel_min             =  -1.8682213233110E-03
(PID.TID 0000.0001) %MON dynstat_wvel_mean            =   4.2241910789332E-10
(PID.TID 0000.0001) %MON dynstat_wvel_sd              =   2.4479260928210E-05
(PID.TID 0000.0001) %MON dynstat_wvel_del2            =   9.9307964547788E-08
(PID.TID 0000.0001) %MON dynstat_theta_max            =   1.2000000000000E+00
(PID.TID 0000.0001) %MON dynstat_theta_min            =  -1.0000000000000E+00
(PID.TID 0000.0001) %MON dynstat_theta_mean           =   5.6506662246042E-01
(PID.TID 0000.0001) %MON dynstat_theta_sd             =   8.4891123829953E-01
(PID.TID 0000.0001) %MON dynstat_theta_del2           =   3.5889909803062E-06
(PID.TID 0000.0001) %MON dynstat_salt_max             =   3.4700000000000E+01
(PID.TID 0000.0001) %MON dynstat_salt_min             =   3.4000000000000E+01
(PID.TID 0000.0001) %MON dynstat_salt_mean            =   3.4497940688212E+01
(PID.TID 0000.0001) %MON dynstat_salt_sd              =   2.7010200406037E-01
(PID.TID 0000.0001) %MON dynstat_salt_del2            =   1.4204551682080E-06
(PID.TID 0000.0001) %MON advcfl_uvel_max              =   3.7099292665681E-03
(PID.TID 0000.0001) %MON advcfl_vvel_max              =   2.4917971455765E-03
(PID.TID 0000.0001) %MON advcfl_wvel_max              =   9.3411066165548E-03
(PID.TID 0000.0001) %MON advcfl_W_hf_max              =   9.3411066165548E-03
(PID.TID 0000.0001) %MON pe_b_mean                    =  -6.8186814535460E-01
(PID.TID 0000.0001) %MON ke_max                       =   5.8457195496154E-04
(PID.TID 0000.0001) %MON ke_mean                      =   6.3905801581523E-07
(PID.TID 0000.0001) %MON ke_vol                       =   4.6183088888548E+12
(PID.TID 0000.0001) // =======================================================
(PID.TID 0000.0001) // End MONITOR dynamic field statistics
(PID.TID 0000.0001) // =======================================================
(PID.TID 0000.0001) // =======================================================
(PID.TID 0000.0001) // Begin OBCS MONITOR field statistics
(PID.TID 0000.0001) // =======================================================
(PID.TID 0000.0001) %MON obc_N_vVel_max               =  -8.9774309779706E-08
(PID.TID 0000.0001) %MON obc_N_vVel_min               =  -8.9774309779707E-08
(PID.TID 0000.0001) %MON obc_N_vVel_mean              =  -8.9774309779706E-08
(PID.TID 0000.0001) %MON obc_N_vVel_sd                =   1.6377200852867E-14
(PID.TID 0000.0001) %MON obc_N_vVel_Int               =  -5.9251044454606E+00
(PID.TID 0000.0001) // =======================================================
(PID.TID 0000.0001) // End OBCS MONITOR field statistics
(PID.TID 0000.0001) // =======================================================
 cg2d: Sum(rhs),rhsMax =   3.00814921556205E+00  4.53042793990546E+02
(PID.TID 0000.0001)      cg2d_init_res =   4.09282819065648E-06
(PID.TID 0000.0001)      cg2d_iters(min,last) =      -1      76
(PID.TID 0000.0001)      cg2d_last_res =   8.80718492710118E-12
(PID.TID 0000.0001) // =======================================================
(PID.TID 0000.0001) // Begin MONITOR dynamic field statistics
(PID.TID 0000.0001) // =======================================================
(PID.TID 0000.0001) %MON time_tsnumber                =                  1243
(PID.TID 0000.0001) %MON time_secondsf                =   1.2430000000000E+05
(PID.TID 0000.0001) %MON dynstat_eta_max              =   5.7989103120479E+00
(PID.TID 0000.0001) %MON dynstat_eta_min              =  -1.4169984636313E+01
(PID.TID 0000.0001) %MON dynstat_eta_mean             =  -2.5237413432569E+00
(PID.TID 0000.0001) %MON dynstat_eta_sd               =   4.9409815985983E+00
(PID.TID 0000.0001) %MON dynstat_eta_del2             =   1.9058866759384E-01
(PID.TID 0000.0001) %MON dynstat_uvel_max             =   8.0984844046785E-03
(PID.TID 0000.0001) %MON dynstat_uvel_min             =  -3.7182527023149E-02
(PID.TID 0000.0001) %MON dynstat_uvel_mean            =   2.2894421188041E-09
(PID.TID 0000.0001) %MON dynstat_uvel_sd              =   1.0339440238912E-03
(PID.TID 0000.0001) %MON dynstat_uvel_del2            =   1.5849996861260E-06
(PID.TID 0000.0001) %MON dynstat_vvel_max             =   2.4959165277258E-02
(PID.TID 0000.0001) %MON dynstat_vvel_min             =  -9.6575649946145E-03
(PID.TID 0000.0001) %MON dynstat_vvel_mean            =  -4.4671204947827E-08
(PID.TID 0000.0001) %MON dynstat_vvel_sd              =   4.8485480856408E-04
(PID.TID 0000.0001) %MON dynstat_vvel_del2            =   1.2906162087679E-06
(PID.TID 0000.0001) %MON dynstat_wvel_max             =   1.4995849431078E-03
(PID.TID 0000.0001) %MON dynstat_wvel_min             =  -1.8728866062595E-03
(PID.TID 0000.0001) %MON dynstat_wvel_mean            =   4.3176971092054E-10
(PID.TID 0000.0001) %MON dynstat_wvel_sd              =   2.4531416601278E-05
(PID.TID 0000.0001) %MON dynstat_wvel_del2            =   9.9492078476033E-08
(PID.TID 0000.0001) %MON dynstat_theta_max            =   1.2000000000000E+00
(PID.TID 0000.0001) %MON dynstat_theta_min            =  -1.0000000000000E+00
(PID.TID 0000.0001) %MON dynstat_theta_mean           =   5.6506581414669E-01
(PID.TID 0000.0001) %MON dynstat_theta_sd             =   8.4891087467694E-01
(PID.TID 0000.0001) %MON dynstat_theta_del2           =   3.5959326284679E-06
(PID.TID 0000.0001) %MON dynstat_salt_max             =   3.4700000000000E+01
(PID.TID 0000.0001) %MON dynstat_salt_min             =   3.4000000000000E+01
(PID.TID 0000.0001) %MON dynstat_salt_mean            =   3.4497940365283E+01
(PID.TID 0000.0001) %MON dynstat_salt_sd              =   2.7010186671051E-01
(PID.TID 0000.0001) %MON dynstat_salt_del2            =   1.4232111735919E-06
(PID.TID 0000.0001) %MON advcfl_uvel_max              =   3.7182527023149E-03
(PID.TID 0000.0001) %MON advcfl_vvel_max              =   2.4959165277258E-03
(PID.TID 0000.0001) %MON advcfl_wvel_max              =   9.3644330312976E-03
(PID.TID 0000.0001) %MON advcfl_W_hf_max              =   9.3644330312976E-03
(PID.TID 0000.0001) %MON pe_b_mean                    =  -6.8186595533129E-01
(PID.TID 0000.0001) %MON ke_max                       =   5.8751248436947E-04
(PID.TID 0000.0001) %MON ke_mean                      =   6.4201058177795E-07
(PID.TID 0000.0001) %MON ke_vol                       =   4.6183089326216E+12
(PID.TID 0000.0001) // =======================================================
(PID.TID 0000.0001) // End MONITOR dynamic field statistics
(PID.TID 0000.0001) // =======================================================
(PID.TID 0000.0001) // =======================================================
(PID.TID 0000.0001) // Begin OBCS MONITOR field statistics
(PID.TID 0000.0001) // =======================================================
(PID.TID 0000.0001) %MON obc_N_vVel_max               =  -8.3278298412089E-08
(PID.TID 0000.0001) %MON obc_N_vVel_min               =  -8.3278298412090E-08
(PID.TID 0000.0001) %MON obc_N_vVel_mean              =  -8.3278298412089E-08
(PID.TID 0000.0001) %MON obc_N_vVel_sd                =  -1.1911799668837E-28
(PID.TID 0000.0001) %MON obc_N_vVel_Int               =  -5.4963676951979E+00
(PID.TID 0000.0001) // =======================================================
(PID.TID 0000.0001) // End OBCS MONITOR field statistics
(PID.TID 0000.0001) // =======================================================
 cg2d: Sum(rhs),rhsMax =   3.00814053066921E+00  4.53042777597495E+02
(PID.TID 0000.0001)      cg2d_init_res =   4.09890464677783E-06
(PID.TID 0000.0001)      cg2d_iters(min,last) =      -1      76
(PID.TID 0000.0001)      cg2d_last_res =   8.82546491519327E-12
(PID.TID 0000.0001) // =======================================================
(PID.TID 0000.0001) // Begin MONITOR dynamic field statistics
(PID.TID 0000.0001) // =======================================================
(PID.TID 0000.0001) %MON time_tsnumber                =                  1244
(PID.TID 0000.0001) %MON time_secondsf                =   1.2440000000000E+05
(PID.TID 0000.0001) %MON dynstat_eta_max              =   5.7989132170919E+00
(PID.TID 0000.0001) %MON dynstat_eta_min              =  -1.4169969080936E+01
(PID.TID 0000.0001) %MON dynstat_eta_mean             =  -2.5237339655889E+00
(PID.TID 0000.0001) %MON dynstat_eta_sd               =   4.9409794832811E+00
(PID.TID 0000.0001) %MON dynstat_eta_del2             =   1.9058868947883E-01
(PID.TID 0000.0001) %MON dynstat_uvel_max             =   8.1175512610354E-03
(PID.TID 0000.0001) %MON dynstat_uvel_min             =  -3.7265850440645E-02
(PID.TID 0000.0001) %MON dynstat_uvel_mean            =   2.2418453034339E-09
(PID.TID 0000.0001) %MON dynstat_uvel_sd              =   1.0364017432953E-03
(PID.TID 0000.0001) %MON dynstat_uvel_del2            =   1.5888245557388E-06
(PID.TID 0000.0001) %MON dynstat_vvel_max             =   2.5000373829502E-02
(PID.TID 0000.0001) %MON dynstat_vvel_min             =  -9.6777290995762E-03
(PID.TID 0000.0001) %MON dynstat_vvel_mean            =  -3.5593785585256E-08
(PID.TID 0000.0001) %MON dynstat_vvel_sd              =   4.8582167626634E-04
(PID.TID 0000.0001) %MON dynstat_vvel_del2            =   1.2932009695607E-06
(PID.TID 0000.0001) %MON dynstat_wvel_max             =   1.5026706621548E-03
(PID.TID 0000.0001) %MON dynstat_wvel_min             =  -1.8775560369177E-03
(PID.TID 0000.0001) %MON dynstat_wvel_mean            =   4.3980704606989E-10
(PID.TID 0000.0001) %MON dynstat_wvel_sd              =   2.4585373886276E-05
(PID.TID 0000.0001) %MON dynstat_wvel_del2            =   9.9685295443302E-08
(PID.TID 0000.0001) %MON dynstat_theta_max            =   1.2000000000000E+00
(PID.TID 0000.0001) %MON dynstat_theta_min            =  -1.0000000000000E+00
(PID.TID 0000.0001) %MON dynstat_theta_mean           =   5.6506500442857E-01
(PID.TID 0000.0001) %MON dynstat_theta_sd             =   8.4891051036472E-01
(PID.TID 0000.0001) %MON dynstat_theta_del2           =   3.6028796915048E-06
(PID.TID 0000.0001) %MON dynstat_salt_max             =   3.4700000000000E+01
(PID.TID 0000.0001) %MON dynstat_salt_min             =   3.4000000000000E+01
(PID.TID 0000.0001) %MON dynstat_salt_mean            =   3.4497940041791E+01
(PID.TID 0000.0001) %MON dynstat_salt_sd              =   2.7010172909914E-01
(PID.TID 0000.0001) %MON dynstat_salt_del2            =   1.4259697275103E-06
(PID.TID 0000.0001) %MON advcfl_uvel_max              =   3.7265850440645E-03
(PID.TID 0000.0001) %MON advcfl_vvel_max              =   2.5000373829502E-03
(PID.TID 0000.0001) %MON advcfl_wvel_max              =   9.3877801845886E-03
(PID.TID 0000.0001) %MON advcfl_W_hf_max              =   9.3877801845886E-03
(PID.TID 0000.0001) %MON pe_b_mean                    =  -6.8186376338643E-01
(PID.TID 0000.0001) %MON ke_max                       =   5.9046548613287E-04
(PID.TID 0000.0001) %MON ke_mean                      =   6.4497616393122E-07
(PID.TID 0000.0001) %MON ke_vol                       =   4.6183089764211E+12
(PID.TID 0000.0001) // =======================================================
(PID.TID 0000.0001) // End MONITOR dynamic field statistics
(PID.TID 0000.0001) // =======================================================
(PID.TID 0000.0001) // =======================================================
(PID.TID 0000.0001) // Begin OBCS MONITOR field statistics
(PID.TID 0000.0001) // =======================================================
(PID.TID 0000.0001) %MON obc_N_vVel_max               =  -7.5438814351364E-08
(PID.TID 0000.0001) %MON obc_N_vVel_min               =  -7.5438814351367E-08
(PID.TID 0000.0001) %MON obc_N_vVel_mean              =  -7.5438814351367E-08
(PID.TID 0000.0001) %MON obc_N_vVel_sd                =  -6.0900061883062E-28
(PID.TID 0000.0001) %MON obc_N_vVel_Int               =  -4.9789617471902E+00
(PID.TID 0000.0001) // =======================================================
(PID.TID 0000.0001) // End OBCS MONITOR field statistics
(PID.TID 0000.0001) // =======================================================
 cg2d: Sum(rhs),rhsMax =   3.00813183854747E+00  4.53042761806983E+02
(PID.TID 0000.0001)      cg2d_init_res =   4.10505597138450E-06
(PID.TID 0000.0001)      cg2d_iters(min,last) =      -1      76
(PID.TID 0000.0001)      cg2d_last_res =   8.84338257811881E-12
(PID.TID 0000.0001) // =======================================================
(PID.TID 0000.0001) // Begin MONITOR dynamic field statistics
(PID.TID 0000.0001) // =======================================================
(PID.TID 0000.0001) %MON time_tsnumber                =                  1245
(PID.TID 0000.0001) %MON time_secondsf                =   1.2450000000000E+05
(PID.TID 0000.0001) %MON dynstat_eta_max              =   5.7989161039582E+00
(PID.TID 0000.0001) %MON dynstat_eta_min              =  -1.4169953519856E+01
(PID.TID 0000.0001) %MON dynstat_eta_mean             =  -2.5237265852131E+00
(PID.TID 0000.0001) %MON dynstat_eta_sd               =   4.9409773687450E+00
(PID.TID 0000.0001) %MON dynstat_eta_del2             =   1.9058871141641E-01
(PID.TID 0000.0001) %MON dynstat_uvel_max             =   8.1366512126264E-03
(PID.TID 0000.0001) %MON dynstat_uvel_min             =  -3.7349262890000E-02
(PID.TID 0000.0001) %MON dynstat_uvel_mean            =   2.2008871428059E-09
(PID.TID 0000.0001) %MON dynstat_uvel_sd              =   1.0388644825597E-03
(PID.TID 0000.0001) %MON dynstat_uvel_del2            =   1.5926580355460E-06
(PID.TID 0000.0001) %MON dynstat_vvel_max             =   2.5041596998227E-02
(PID.TID 0000.0001) %MON dynstat_vvel_min             =  -9.6979114742992E-03
(PID.TID 0000.0001) %MON dynstat_vvel_mean            =  -2.5376336247756E-08
(PID.TID 0000.0001) %MON dynstat_vvel_sd              =   4.8679074670707E-04
(PID.TID 0000.0001) %MON dynstat_vvel_del2            =   1.2957910759481E-06
(PID.TID 0000.0001) %MON dynstat_wvel_max             =   1.5057595049054E-03
(PID.TID 0000.0001) %MON dynstat_wvel_min             =  -1.8822295593544E-03
(PID.TID 0000.0001) %MON dynstat_wvel_mean            =   4.4642125176409E-10
(PID.TID 0000.0001) %MON dynstat_wvel_sd              =   2.4640951368588E-05
(PID.TID 0000.0001) %MON dynstat_wvel_del2            =   9.9887022963495E-08
(PID.TID 0000.0001) %MON dynstat_theta_max            =   1.2000000000000E+00
(PID.TID 0000.0001) %MON dynstat_theta_min            =  -1.0000000000000E+00
(PID.TID 0000.0001) %MON dynstat_theta_mean           =   5.6506419330415E-01
(PID.TID 0000.0001) %MON dynstat_theta_sd             =   8.4891014536078E-01
(PID.TID 0000.0001) %MON dynstat_theta_del2           =   3.6098324352855E-06
(PID.TID 0000.0001) %MON dynstat_salt_max             =   3.4700000000000E+01
(PID.TID 0000.0001) %MON dynstat_salt_min             =   3.4000000000000E+01
(PID.TID 0000.0001) %MON dynstat_salt_mean            =   3.4497939717736E+01
(PID.TID 0000.0001) %MON dynstat_salt_sd              =   2.7010159122568E-01
(PID.TID 0000.0001) %MON dynstat_salt_del2            =   1.4287308972634E-06
(PID.TID 0000.0001) %MON advcfl_uvel_max              =   3.7349262890000E-03
(PID.TID 0000.0001) %MON advcfl_vvel_max              =   2.5041596998227E-03
(PID.TID 0000.0001) %MON advcfl_wvel_max              =   9.4111477967721E-03
(PID.TID 0000.0001) %MON advcfl_W_hf_max              =   9.4111477967721E-03
(PID.TID 0000.0001) %MON pe_b_mean                    =  -6.8186156974808E-01
(PID.TID 0000.0001) %MON ke_max                       =   5.9343100340933E-04
(PID.TID 0000.0001) %MON ke_mean                      =   6.4795479692817E-07
(PID.TID 0000.0001) %MON ke_vol                       =   4.6183090202444E+12
(PID.TID 0000.0001) // =======================================================
(PID.TID 0000.0001) // End MONITOR dynamic field statistics
(PID.TID 0000.0001) // =======================================================
(PID.TID 0000.0001) // =======================================================
(PID.TID 0000.0001) // Begin OBCS MONITOR field statistics
(PID.TID 0000.0001) // =======================================================
(PID.TID 0000.0001) %MON obc_N_vVel_max               =  -6.6394200894901E-08
(PID.TID 0000.0001) %MON obc_N_vVel_min               =  -6.6394200894902E-08
(PID.TID 0000.0001) %MON obc_N_vVel_mean              =  -6.6394200894902E-08
(PID.TID 0000.0001) %MON obc_N_vVel_sd                =  -2.0194839173658E-28
(PID.TID 0000.0001) %MON obc_N_vVel_Int               =  -4.3820172590635E+00
(PID.TID 0000.0001) // =======================================================
(PID.TID 0000.0001) // End OBCS MONITOR field statistics
(PID.TID 0000.0001) // =======================================================
 cg2d: Sum(rhs),rhsMax =   3.00812314058074E+00  4.53042746615636E+02
(PID.TID 0000.0001)      cg2d_init_res =   4.11129120392788E-06
(PID.TID 0000.0001)      cg2d_iters(min,last) =      -1      76
(PID.TID 0000.0001)      cg2d_last_res =   8.86097119147961E-12
(PID.TID 0000.0001) // =======================================================
(PID.TID 0000.0001) // Begin MONITOR dynamic field statistics
(PID.TID 0000.0001) // =======================================================
(PID.TID 0000.0001) %MON time_tsnumber                =                  1246
(PID.TID 0000.0001) %MON time_secondsf                =   1.2460000000000E+05
(PID.TID 0000.0001) %MON dynstat_eta_max              =   5.7989189709904E+00
(PID.TID 0000.0001) %MON dynstat_eta_min              =  -1.4169937954834E+01
(PID.TID 0000.0001) %MON dynstat_eta_mean             =  -2.5237192032718E+00
(PID.TID 0000.0001) %MON dynstat_eta_sd               =   4.9409752552148E+00
(PID.TID 0000.0001) %MON dynstat_eta_del2             =   1.9058873340706E-01
(PID.TID 0000.0001) %MON dynstat_uvel_max             =   8.1557842160800E-03
(PID.TID 0000.0001) %MON dynstat_uvel_min             =  -3.7432764344666E-02
(PID.TID 0000.0001) %MON dynstat_uvel_mean            =   2.1673329725583E-09
(PID.TID 0000.0001) %MON dynstat_uvel_sd              =   1.0413322503853E-03
(PID.TID 0000.0001) %MON dynstat_uvel_del2            =   1.5965001419672E-06
(PID.TID 0000.0001) %MON dynstat_vvel_max             =   2.5082834667020E-02
(PID.TID 0000.0001) %MON dynstat_vvel_min             =  -9.7181120943113E-03
(PID.TID 0000.0001) %MON dynstat_vvel_mean            =  -1.4193149935831E-08
(PID.TID 0000.0001) %MON dynstat_vvel_sd              =   4.8776196367251E-04
(PID.TID 0000.0001) %MON dynstat_vvel_del2            =   1.2983860572565E-06
(PID.TID 0000.0001) %MON dynstat_wvel_max             =   1.5088514681647E-03
(PID.TID 0000.0001) %MON dynstat_wvel_min             =  -1.8869071169746E-03
(PID.TID 0000.0001) %MON dynstat_wvel_mean            =   4.5152628340740E-10
(PID.TID 0000.0001) %MON dynstat_wvel_sd              =   2.4697867125509E-05
(PID.TID 0000.0001) %MON dynstat_wvel_del2            =   1.0009608449872E-07
(PID.TID 0000.0001) %MON dynstat_theta_max            =   1.2000000000000E+00
(PID.TID 0000.0001) %MON dynstat_theta_min            =  -1.0000000000000E+00
(PID.TID 0000.0001) %MON dynstat_theta_mean           =   5.6506338077144E-01
(PID.TID 0000.0001) %MON dynstat_theta_sd             =   8.4890977966066E-01
(PID.TID 0000.0001) %MON dynstat_theta_del2           =   3.6167898120153E-06
(PID.TID 0000.0001) %MON dynstat_salt_max             =   3.4700000000000E+01
(PID.TID 0000.0001) %MON dynstat_salt_min             =   3.4000000000000E+01
(PID.TID 0000.0001) %MON dynstat_salt_mean            =   3.4497939393116E+01
(PID.TID 0000.0001) %MON dynstat_salt_sd              =   2.7010145308846E-01
(PID.TID 0000.0001) %MON dynstat_salt_del2            =   1.4314940692472E-06
(PID.TID 0000.0001) %MON advcfl_uvel_max              =   3.7432764344666E-03
(PID.TID 0000.0001) %MON advcfl_vvel_max              =   2.5082834667020E-03
(PID.TID 0000.0001) %MON advcfl_wvel_max              =   9.4345355848731E-03
(PID.TID 0000.0001) %MON advcfl_W_hf_max              =   9.4345355848731E-03
(PID.TID 0000.0001) %MON pe_b_mean                    =  -6.8185937460589E-01
(PID.TID 0000.0001) %MON ke_max                       =   5.9640907947378E-04
(PID.TID 0000.0001) %MON ke_mean                      =   6.5094650507245E-07
(PID.TID 0000.0001) %MON ke_vol                       =   4.6183090640838E+12
(PID.TID 0000.0001) // =======================================================
(PID.TID 0000.0001) // End MONITOR dynamic field statistics
(PID.TID 0000.0001) // =======================================================
(PID.TID 0000.0001) // =======================================================
(PID.TID 0000.0001) // Begin OBCS MONITOR field statistics
(PID.TID 0000.0001) // =======================================================
(PID.TID 0000.0001) %MON obc_N_vVel_max               =  -5.6301268086352E-08
(PID.TID 0000.0001) %MON obc_N_vVel_min               =  -5.6301268086354E-08
(PID.TID 0000.0001) %MON obc_N_vVel_mean              =  -5.6301268086354E-08
(PID.TID 0000.0001) %MON obc_N_vVel_sd                =  -2.6071852917554E-28
(PID.TID 0000.0001) %MON obc_N_vVel_Int               =  -3.7158836936993E+00
(PID.TID 0000.0001) // =======================================================
(PID.TID 0000.0001) // End OBCS MONITOR field statistics
(PID.TID 0000.0001) // =======================================================
 cg2d: Sum(rhs),rhsMax =   3.00811443798560E+00  4.53042732010751E+02
(PID.TID 0000.0001)      cg2d_init_res =   4.11744949588035E-06
(PID.TID 0000.0001)      cg2d_iters(min,last) =      -1      76
(PID.TID 0000.0001)      cg2d_last_res =   8.87779156573184E-12
(PID.TID 0000.0001) // =======================================================
(PID.TID 0000.0001) // Begin MONITOR dynamic field statistics
(PID.TID 0000.0001) // =======================================================
(PID.TID 0000.0001) %MON time_tsnumber                =                  1247
(PID.TID 0000.0001) %MON time_secondsf                =   1.2470000000000E+05
(PID.TID 0000.0001) %MON dynstat_eta_max              =   5.7989218168671E+00
(PID.TID 0000.0001) %MON dynstat_eta_min              =  -1.4169922387236E+01
(PID.TID 0000.0001) %MON dynstat_eta_mean             =  -2.5237118207148E+00
(PID.TID 0000.0001) %MON dynstat_eta_sd               =   4.9409731428002E+00
(PID.TID 0000.0001) %MON dynstat_eta_del2             =   1.9058875544885E-01
(PID.TID 0000.0001) %MON dynstat_uvel_max             =   8.1749502270450E-03
(PID.TID 0000.0001) %MON dynstat_uvel_min             =  -3.7516354779649E-02
(PID.TID 0000.0001) %MON dynstat_uvel_mean            =   2.1417708958714E-09
(PID.TID 0000.0001) %MON dynstat_uvel_sd              =   1.0438050559554E-03
(PID.TID 0000.0001) %MON dynstat_uvel_del2            =   1.6003508739323E-06
(PID.TID 0000.0001) %MON dynstat_vvel_max             =   2.5124086717780E-02
(PID.TID 0000.0001) %MON dynstat_vvel_min             =  -9.7383309367436E-03
(PID.TID 0000.0001) %MON dynstat_vvel_mean            =  -2.2327881586099E-09
(PID.TID 0000.0001) %MON dynstat_vvel_sd              =   4.8873525664077E-04
(PID.TID 0000.0001) %MON dynstat_vvel_del2            =   1.3009853506163E-06
(PID.TID 0000.0001) %MON dynstat_wvel_max             =   1.5119465487231E-03
(PID.TID 0000.0001) %MON dynstat_wvel_min             =  -1.8915886505685E-03
(PID.TID 0000.0001) %MON dynstat_wvel_mean            =   4.5506434812306E-10
(PID.TID 0000.0001) %MON dynstat_wvel_sd              =   2.4755760900259E-05
(PID.TID 0000.0001) %MON dynstat_wvel_del2            =   1.0031082382629E-07
(PID.TID 0000.0001) %MON dynstat_theta_max            =   1.2000000000000E+00
(PID.TID 0000.0001) %MON dynstat_theta_min            =  -1.0000000000000E+00
(PID.TID 0000.0001) %MON dynstat_theta_mean           =   5.6506256682832E-01
(PID.TID 0000.0001) %MON dynstat_theta_sd             =   8.4890941326215E-01
(PID.TID 0000.0001) %MON dynstat_theta_del2           =   3.6237536779921E-06
(PID.TID 0000.0001) %MON dynstat_salt_max             =   3.4700000000000E+01
(PID.TID 0000.0001) %MON dynstat_salt_min             =   3.4000000000000E+01
(PID.TID 0000.0001) %MON dynstat_salt_mean            =   3.4497939067931E+01
(PID.TID 0000.0001) %MON dynstat_salt_sd              =   2.7010131468694E-01
(PID.TID 0000.0001) %MON dynstat_salt_del2            =   1.4342601487285E-06
(PID.TID 0000.0001) %MON advcfl_uvel_max              =   3.7516354779649E-03
(PID.TID 0000.0001) %MON advcfl_vvel_max              =   2.5124086717780E-03
(PID.TID 0000.0001) %MON advcfl_wvel_max              =   9.4579432528426E-03
(PID.TID 0000.0001) %MON advcfl_W_hf_max              =   9.4579432528426E-03
(PID.TID 0000.0001) %MON pe_b_mean                    =  -6.8185717810814E-01
(PID.TID 0000.0001) %MON ke_max                       =   5.9939975771118E-04
(PID.TID 0000.0001) %MON ke_mean                      =   6.5395130611849E-07
(PID.TID 0000.0001) %MON ke_vol                       =   4.6183091079326E+12
(PID.TID 0000.0001) // =======================================================
(PID.TID 0000.0001) // End MONITOR dynamic field statistics
(PID.TID 0000.0001) // =======================================================
(PID.TID 0000.0001) // =======================================================
(PID.TID 0000.0001) // Begin OBCS MONITOR field statistics
(PID.TID 0000.0001) // =======================================================
(PID.TID 0000.0001) %MON obc_N_vVel_max               =  -4.5332595821178E-08
(PID.TID 0000.0001) %MON obc_N_vVel_min               =  -4.5332595821179E-08
(PID.TID 0000.0001) %MON obc_N_vVel_mean              =  -4.5332595821179E-08
(PID.TID 0000.0001) %MON obc_N_vVel_sd                =  -1.0728508311006E-28
(PID.TID 0000.0001) %MON obc_N_vVel_Int               =  -2.9919513241978E+00
(PID.TID 0000.0001) // =======================================================
(PID.TID 0000.0001) // End OBCS MONITOR field statistics
(PID.TID 0000.0001) // =======================================================
 cg2d: Sum(rhs),rhsMax =   3.00810573179313E+00  4.53042717970629E+02
(PID.TID 0000.0001)      cg2d_init_res =   4.12386965711259E-06
(PID.TID 0000.0001)      cg2d_iters(min,last) =      -1      76
(PID.TID 0000.0001)      cg2d_last_res =   8.89488861938212E-12
(PID.TID 0000.0001) // =======================================================
(PID.TID 0000.0001) // Begin MONITOR dynamic field statistics
(PID.TID 0000.0001) // =======================================================
(PID.TID 0000.0001) %MON time_tsnumber                =                  1248
(PID.TID 0000.0001) %MON time_secondsf                =   1.2480000000000E+05
(PID.TID 0000.0001) %MON dynstat_eta_max              =   5.7989246406301E+00
(PID.TID 0000.0001) %MON dynstat_eta_min              =  -1.4169906818041E+01
(PID.TID 0000.0001) %MON dynstat_eta_mean             =  -2.5237044382863E+00
(PID.TID 0000.0001) %MON dynstat_eta_sd               =   4.9409710316120E+00
(PID.TID 0000.0001) %MON dynstat_eta_del2             =   1.9058877754424E-01
(PID.TID 0000.0001) %MON dynstat_uvel_max             =   8.1941492002002E-03
(PID.TID 0000.0001) %MON dynstat_uvel_min             =  -3.7600034172456E-02
(PID.TID 0000.0001) %MON dynstat_uvel_mean            =   2.1247056889450E-09
(PID.TID 0000.0001) %MON dynstat_uvel_sd              =   1.0462829079213E-03
(PID.TID 0000.0001) %MON dynstat_uvel_del2            =   1.6042102479315E-06
(PID.TID 0000.0001) %MON dynstat_vvel_max             =   2.5165353031031E-02
(PID.TID 0000.0001) %MON dynstat_vvel_min             =  -9.7585679796812E-03
(PID.TID 0000.0001) %MON dynstat_vvel_mean            =   1.0305006324363E-08
(PID.TID 0000.0001) %MON dynstat_vvel_sd              =   4.8971054119624E-04
(PID.TID 0000.0001) %MON dynstat_vvel_del2            =   1.3035883343559E-06
(PID.TID 0000.0001) %MON dynstat_wvel_max             =   1.5150447433007E-03
(PID.TID 0000.0001) %MON dynstat_wvel_min             =  -1.8962740997826E-03
(PID.TID 0000.0001) %MON dynstat_wvel_mean            =   4.5699539400796E-10
(PID.TID 0000.0001) %MON dynstat_wvel_sd              =   2.4814220998887E-05
(PID.TID 0000.0001) %MON dynstat_wvel_del2            =   1.0052923804610E-07
(PID.TID 0000.0001) %MON dynstat_theta_max            =   1.2000000000000E+00
(PID.TID 0000.0001) %MON dynstat_theta_min            =  -1.0000000000000E+00
(PID.TID 0000.0001) %MON dynstat_theta_mean           =   5.6506175147264E-01
(PID.TID 0000.0001) %MON dynstat_theta_sd             =   8.4890904616353E-01
(PID.TID 0000.0001) %MON dynstat_theta_del2           =   3.6307250908118E-06
(PID.TID 0000.0001) %MON dynstat_salt_max             =   3.4700000000000E+01
(PID.TID 0000.0001) %MON dynstat_salt_min             =   3.4000000000000E+01
(PID.TID 0000.0001) %MON dynstat_salt_mean            =   3.4497938742180E+01
(PID.TID 0000.0001) %MON dynstat_salt_sd              =   2.7010117602053E-01
(PID.TID 0000.0001) %MON dynstat_salt_del2            =   1.4370293336476E-06
(PID.TID 0000.0001) %MON advcfl_uvel_max              =   3.7600034172456E-03
(PID.TID 0000.0001) %MON advcfl_vvel_max              =   2.5165353031031E-03
(PID.TID 0000.0001) %MON advcfl_wvel_max              =   9.4813704989128E-03
(PID.TID 0000.0001) %MON advcfl_W_hf_max              =   9.4813704989128E-03
(PID.TID 0000.0001) %MON pe_b_mean                    =  -6.8185498035970E-01
(PID.TID 0000.0001) %MON ke_max                       =   6.0240308164549E-04
(PID.TID 0000.0001) %MON ke_mean                      =   6.5696921036679E-07
(PID.TID 0000.0001) %MON ke_vol                       =   4.6183091517850E+12
(PID.TID 0000.0001) // =======================================================
(PID.TID 0000.0001) // End MONITOR dynamic field statistics
(PID.TID 0000.0001) // =======================================================
(PID.TID 0000.0001) // =======================================================
(PID.TID 0000.0001) // Begin OBCS MONITOR field statistics
(PID.TID 0000.0001) // =======================================================
(PID.TID 0000.0001) %MON obc_N_vVel_max               =  -3.3673610549097E-08
(PID.TID 0000.0001) %MON obc_N_vVel_min               =  -3.3673610549098E-08
(PID.TID 0000.0001) %MON obc_N_vVel_mean              =  -3.3673610549097E-08
(PID.TID 0000.0001) %MON obc_N_vVel_sd                =   5.0046312292483E-15
(PID.TID 0000.0001) %MON obc_N_vVel_Int               =  -2.2224582962404E+00
(PID.TID 0000.0001) // =======================================================
(PID.TID 0000.0001) // End OBCS MONITOR field statistics
(PID.TID 0000.0001) // =======================================================
 cg2d: Sum(rhs),rhsMax =   3.00809702283428E+00  4.53042704464859E+02
(PID.TID 0000.0001)      cg2d_init_res =   4.13035401969068E-06
(PID.TID 0000.0001)      cg2d_iters(min,last) =      -1      76
(PID.TID 0000.0001)      cg2d_last_res =   8.91174802755489E-12
(PID.TID 0000.0001) // =======================================================
(PID.TID 0000.0001) // Begin MONITOR dynamic field statistics
(PID.TID 0000.0001) // =======================================================
(PID.TID 0000.0001) %MON time_tsnumber                =                  1249
(PID.TID 0000.0001) %MON time_secondsf                =   1.2490000000000E+05
(PID.TID 0000.0001) %MON dynstat_eta_max              =   5.7989274416869E+00
(PID.TID 0000.0001) %MON dynstat_eta_min              =  -1.4169891247795E+01
(PID.TID 0000.0001) %MON dynstat_eta_mean             =  -2.5236970565140E+00
(PID.TID 0000.0001) %MON dynstat_eta_sd               =   4.9409689216386E+00
(PID.TID 0000.0001) %MON dynstat_eta_del2             =   1.9058879969295E-01
(PID.TID 0000.0001) %MON dynstat_uvel_max             =   8.2133810891678E-03
(PID.TID 0000.0001) %MON dynstat_uvel_min             =  -3.7683802502896E-02
(PID.TID 0000.0001) %MON dynstat_uvel_mean            =   2.1165098247365E-09
(PID.TID 0000.0001) %MON dynstat_uvel_sd              =   1.0487658149559E-03
(PID.TID 0000.0001) %MON dynstat_uvel_del2            =   1.6080782793717E-06
(PID.TID 0000.0001) %MON dynstat_vvel_max             =   2.5206633486386E-02
(PID.TID 0000.0001) %MON dynstat_vvel_min             =  -9.7788232016205E-03
(PID.TID 0000.0001) %MON dynstat_vvel_mean            =   2.3212778706438E-08
(PID.TID 0000.0001) %MON dynstat_vvel_sd              =   4.9068772794550E-04
(PID.TID 0000.0001) %MON dynstat_vvel_del2            =   1.3061943730405E-06
(PID.TID 0000.0001) %MON dynstat_wvel_max             =   1.5181460485913E-03
(PID.TID 0000.0001) %MON dynstat_wvel_min             =  -1.9009634036236E-03
(PID.TID 0000.0001) %MON dynstat_wvel_mean            =   4.5731342631926E-10
(PID.TID 0000.0001) %MON dynstat_wvel_sd              =   2.4872814327346E-05
(PID.TID 0000.0001) %MON dynstat_wvel_del2            =   1.0074913740720E-07
(PID.TID 0000.0001) %MON dynstat_theta_max            =   1.2000000000000E+00
(PID.TID 0000.0001) %MON dynstat_theta_min            =  -1.0000000000000E+00
(PID.TID 0000.0001) %MON dynstat_theta_mean           =   5.6506093470221E-01
(PID.TID 0000.0001) %MON dynstat_theta_sd             =   8.4890867836275E-01
(PID.TID 0000.0001) %MON dynstat_theta_del2           =   3.6377048561436E-06
(PID.TID 0000.0001) %MON dynstat_salt_max             =   3.4700000000000E+01
(PID.TID 0000.0001) %MON dynstat_salt_min             =   3.4000000000000E+01
(PID.TID 0000.0001) %MON dynstat_salt_mean            =   3.4497938415861E+01
(PID.TID 0000.0001) %MON dynstat_salt_sd              =   2.7010103708870E-01
(PID.TID 0000.0001) %MON dynstat_salt_del2            =   1.4398018376844E-06
(PID.TID 0000.0001) %MON advcfl_uvel_max              =   3.7683802502896E-03
(PID.TID 0000.0001) %MON advcfl_vvel_max              =   2.5206633486386E-03
(PID.TID 0000.0001) %MON advcfl_wvel_max              =   9.5048170181181E-03
(PID.TID 0000.0001) %MON advcfl_W_hf_max              =   9.5048170181181E-03
(PID.TID 0000.0001) %MON pe_b_mean                    =  -6.8185278142067E-01
(PID.TID 0000.0001) %MON ke_max                       =   6.0541909493351E-04
(PID.TID 0000.0001) %MON ke_mean                      =   6.6000022553060E-07
(PID.TID 0000.0001) %MON ke_vol                       =   4.6183091956366E+12
(PID.TID 0000.0001) // =======================================================
(PID.TID 0000.0001) // End MONITOR dynamic field statistics
(PID.TID 0000.0001) // =======================================================
(PID.TID 0000.0001) // =======================================================
(PID.TID 0000.0001) // Begin OBCS MONITOR field statistics
(PID.TID 0000.0001) // =======================================================
(PID.TID 0000.0001) %MON obc_N_vVel_max               =  -2.1519359651601E-08
(PID.TID 0000.0001) %MON obc_N_vVel_min               =  -2.1519359651601E-08
(PID.TID 0000.0001) %MON obc_N_vVel_mean              =  -2.1519359651601E-08
(PID.TID 0000.0001) %MON obc_N_vVel_sd                =   5.4570595719758E-15
(PID.TID 0000.0001) %MON obc_N_vVel_Int               =  -1.4202777370057E+00
(PID.TID 0000.0001) // =======================================================
(PID.TID 0000.0001) // End OBCS MONITOR field statistics
(PID.TID 0000.0001) // =======================================================
 cg2d: Sum(rhs),rhsMax =   3.00808831172809E+00  4.53042691454719E+02
(PID.TID 0000.0001)      cg2d_init_res =   4.13690439619019E-06
(PID.TID 0000.0001)      cg2d_iters(min,last) =      -1      76
(PID.TID 0000.0001)      cg2d_last_res =   8.92845738645631E-12
(PID.TID 0000.0001) // =======================================================
(PID.TID 0000.0001) // Begin MONITOR dynamic field statistics
(PID.TID 0000.0001) // =======================================================
(PID.TID 0000.0001) %MON time_tsnumber                =                  1250
(PID.TID 0000.0001) %MON time_secondsf                =   1.2500000000000E+05
(PID.TID 0000.0001) %MON dynstat_eta_max              =   5.7989302198192E+00
(PID.TID 0000.0001) %MON dynstat_eta_min              =  -1.4169875676607E+01
(PID.TID 0000.0001) %MON dynstat_eta_mean             =  -2.5236896757014E+00
(PID.TID 0000.0001) %MON dynstat_eta_sd               =   4.9409668127924E+00
(PID.TID 0000.0001) %MON dynstat_eta_del2             =   1.9058882189467E-01
(PID.TID 0000.0001) %MON dynstat_uvel_max             =   8.2326458464399E-03
(PID.TID 0000.0001) %MON dynstat_uvel_min             =  -3.7767659752681E-02
(PID.TID 0000.0001) %MON dynstat_uvel_mean            =   2.1174211297338E-09
(PID.TID 0000.0001) %MON dynstat_uvel_sd              =   1.0512537857046E-03
(PID.TID 0000.0001) %MON dynstat_uvel_del2            =   1.6119549829874E-06
(PID.TID 0000.0001) %MON dynstat_vvel_max             =   2.5247927963054E-02
(PID.TID 0000.0001) %MON dynstat_vvel_min             =  -9.7990965805443E-03
(PID.TID 0000.0001) %MON dynstat_vvel_mean            =   3.6278855330034E-08
(PID.TID 0000.0001) %MON dynstat_vvel_sd              =   4.9166672884080E-04
(PID.TID 0000.0001) %MON dynstat_vvel_del2            =   1.3088028598507E-06
(PID.TID 0000.0001) %MON dynstat_wvel_max             =   1.5212504612239E-03
(PID.TID 0000.0001) %MON dynstat_wvel_min             =  -1.9056565004590E-03
(PID.TID 0000.0001) %MON dynstat_wvel_mean            =   4.5603611384210E-10
(PID.TID 0000.0001) %MON dynstat_wvel_sd              =   2.4931116846657E-05
(PID.TID 0000.0001) %MON dynstat_wvel_del2            =   1.0096830775777E-07
(PID.TID 0000.0001) %MON dynstat_theta_max            =   1.2000000000000E+00
(PID.TID 0000.0001) %MON dynstat_theta_min            =  -1.0000000000000E+00
(PID.TID 0000.0001) %MON dynstat_theta_mean           =   5.6506011651476E-01
(PID.TID 0000.0001) %MON dynstat_theta_sd             =   8.4890830985850E-01
(PID.TID 0000.0001) %MON dynstat_theta_del2           =   3.6446937805827E-06
(PID.TID 0000.0001) %MON dynstat_salt_max             =   3.4700000000000E+01
(PID.TID 0000.0001) %MON dynstat_salt_min             =   3.4000000000000E+01
(PID.TID 0000.0001) %MON dynstat_salt_mean            =   3.4497938088975E+01
(PID.TID 0000.0001) %MON dynstat_salt_sd              =   2.7010089789077E-01
(PID.TID 0000.0001) %MON dynstat_salt_del2            =   1.4425778769898E-06
(PID.TID 0000.0001) %MON advcfl_uvel_max              =   3.7767659752681E-03
(PID.TID 0000.0001) %MON advcfl_vvel_max              =   2.5247927963054E-03
(PID.TID 0000.0001) %MON advcfl_wvel_max              =   9.5282825022951E-03
(PID.TID 0000.0001) %MON advcfl_W_hf_max              =   9.5282825022951E-03
(PID.TID 0000.0001) %MON pe_b_mean                    =  -6.8185058130547E-01
(PID.TID 0000.0001) %MON ke_max                       =   6.0844784134617E-04
(PID.TID 0000.0001) %MON ke_mean                      =   6.6304435976739E-07
(PID.TID 0000.0001) %MON ke_vol                       =   4.6183092394843E+12
(PID.TID 0000.0001) // =======================================================
(PID.TID 0000.0001) // End MONITOR dynamic field statistics
(PID.TID 0000.0001) // =======================================================
(PID.TID 0000.0001) // =======================================================
(PID.TID 0000.0001) // Begin OBCS MONITOR field statistics
(PID.TID 0000.0001) // =======================================================
(PID.TID 0000.0001) %MON obc_N_vVel_max               =  -9.0712499067651E-09
(PID.TID 0000.0001) %MON obc_N_vVel_min               =  -9.0712499067651E-09
(PID.TID 0000.0001) %MON obc_N_vVel_mean              =  -9.0712499067651E-09
(PID.TID 0000.0001) %MON obc_N_vVel_sd                =   8.3820000221455E-16
(PID.TID 0000.0001) %MON obc_N_vVel_Int               =  -5.9870249384649E-01
(PID.TID 0000.0001) // =======================================================
(PID.TID 0000.0001) // End OBCS MONITOR field statistics
(PID.TID 0000.0001) // =======================================================
 cg2d: Sum(rhs),rhsMax =   3.00807959886761E+00  4.53042678894713E+02
(PID.TID 0000.0001)      cg2d_init_res =   4.14351030681156E-06
(PID.TID 0000.0001)      cg2d_iters(min,last) =      -1      76
(PID.TID 0000.0001)      cg2d_last_res =   8.94507841288174E-12
(PID.TID 0000.0001) // =======================================================
(PID.TID 0000.0001) // Begin MONITOR dynamic field statistics
(PID.TID 0000.0001) // =======================================================
(PID.TID 0000.0001) %MON time_tsnumber                =                  1251
(PID.TID 0000.0001) %MON time_secondsf                =   1.2510000000000E+05
(PID.TID 0000.0001) %MON dynstat_eta_max              =   5.7989329751938E+00
(PID.TID 0000.0001) %MON dynstat_eta_min              =  -1.4169860104159E+01
(PID.TID 0000.0001) %MON dynstat_eta_mean             =  -2.5236822959250E+00
(PID.TID 0000.0001) %MON dynstat_eta_sd               =   4.9409647049098E+00
(PID.TID 0000.0001) %MON dynstat_eta_del2             =   1.9058884414888E-01
(PID.TID 0000.0001) %MON dynstat_uvel_max             =   8.2519434233657E-03
(PID.TID 0000.0001) %MON dynstat_uvel_min             =  -3.7851605905614E-02
(PID.TID 0000.0001) %MON dynstat_uvel_mean            =   2.1275314745832E-09
(PID.TID 0000.0001) %MON dynstat_uvel_sd              =   1.0537468287901E-03
(PID.TID 0000.0001) %MON dynstat_uvel_del2            =   1.6158403730720E-06
(PID.TID 0000.0001) %MON dynstat_vvel_max             =   2.5289236340226E-02
(PID.TID 0000.0001) %MON dynstat_vvel_min             =  -9.8193880934212E-03
(PID.TID 0000.0001) %MON dynstat_vvel_mean            =   4.9290902437308E-08
(PID.TID 0000.0001) %MON dynstat_vvel_sd              =   4.9264746332153E-04
(PID.TID 0000.0001) %MON dynstat_vvel_del2            =   1.3114132565257E-06
(PID.TID 0000.0001) %MON dynstat_wvel_max             =   1.5243579777583E-03
(PID.TID 0000.0001) %MON dynstat_wvel_min             =  -1.9103533281247E-03
(PID.TID 0000.0001) %MON dynstat_wvel_mean            =   4.5320763996656E-10
(PID.TID 0000.0001) %MON dynstat_wvel_sd              =   2.4988742623886E-05
(PID.TID 0000.0001) %MON dynstat_wvel_del2            =   1.0118467110041E-07
(PID.TID 0000.0001) %MON dynstat_theta_max            =   1.2000000000000E+00
(PID.TID 0000.0001) %MON dynstat_theta_min            =  -1.0000000000000E+00
(PID.TID 0000.0001) %MON dynstat_theta_mean           =   5.6505929690791E-01
(PID.TID 0000.0001) %MON dynstat_theta_sd             =   8.4890794065006E-01
(PID.TID 0000.0001) %MON dynstat_theta_del2           =   3.6516926219401E-06
(PID.TID 0000.0001) %MON dynstat_salt_max             =   3.4700000000000E+01
(PID.TID 0000.0001) %MON dynstat_salt_min             =   3.4000000000000E+01
(PID.TID 0000.0001) %MON dynstat_salt_mean            =   3.4497937761519E+01
(PID.TID 0000.0001) %MON dynstat_salt_sd              =   2.7010075842685E-01
(PID.TID 0000.0001) %MON dynstat_salt_del2            =   1.4453576562430E-06
(PID.TID 0000.0001) %MON advcfl_uvel_max              =   3.7851605905614E-03
(PID.TID 0000.0001) %MON advcfl_vvel_max              =   2.5289236340226E-03
(PID.TID 0000.0001) %MON advcfl_wvel_max              =   9.5517666406233E-03
(PID.TID 0000.0001) %MON advcfl_W_hf_max              =   9.5517666406233E-03
(PID.TID 0000.0001) %MON pe_b_mean                    =  -6.8184837998296E-01
(PID.TID 0000.0001) %MON ke_max                       =   6.1148936477576E-04
(PID.TID 0000.0001) %MON ke_mean                      =   6.6610162471425E-07
(PID.TID 0000.0001) %MON ke_vol                       =   4.6183092833263E+12
(PID.TID 0000.0001) // =======================================================
(PID.TID 0000.0001) // End MONITOR dynamic field statistics
(PID.TID 0000.0001) // =======================================================
(PID.TID 0000.0001) // =======================================================
(PID.TID 0000.0001) // Begin OBCS MONITOR field statistics
(PID.TID 0000.0001) // =======================================================
(PID.TID 0000.0001) %MON obc_N_vVel_max               =   3.4663477947212E-09
(PID.TID 0000.0001) %MON obc_N_vVel_min               =   3.4663477947211E-09
(PID.TID 0000.0001) %MON obc_N_vVel_mean              =   3.4663477947212E-09
(PID.TID 0000.0001) %MON obc_N_vVel_sd                =  -2.7887465594727E-31
(PID.TID 0000.0001) %MON obc_N_vVel_Int               =   2.2877895445160E-01
(PID.TID 0000.0001) // =======================================================
(PID.TID 0000.0001) // End OBCS MONITOR field statistics
(PID.TID 0000.0001) // =======================================================
 cg2d: Sum(rhs),rhsMax =   3.00807088442062E+00  4.53042666732573E+02
(PID.TID 0000.0001)      cg2d_init_res =   4.15016297271941E-06
(PID.TID 0000.0001)      cg2d_iters(min,last) =      -1      76
(PID.TID 0000.0001)      cg2d_last_res =   8.96166334349854E-12
(PID.TID 0000.0001) // =======================================================
(PID.TID 0000.0001) // Begin MONITOR dynamic field statistics
(PID.TID 0000.0001) // =======================================================
(PID.TID 0000.0001) %MON time_tsnumber                =                  1252
(PID.TID 0000.0001) %MON time_secondsf                =   1.2520000000000E+05
(PID.TID 0000.0001) %MON dynstat_eta_max              =   5.7989357083337E+00
(PID.TID 0000.0001) %MON dynstat_eta_min              =  -1.4169844529721E+01
(PID.TID 0000.0001) %MON dynstat_eta_mean             =  -2.5236749170343E+00
(PID.TID 0000.0001) %MON dynstat_eta_sd               =   4.9409625977552E+00
(PID.TID 0000.0001) %MON dynstat_eta_del2             =   1.9058886645491E-01
(PID.TID 0000.0001) %MON dynstat_uvel_max             =   8.2712737701289E-03
(PID.TID 0000.0001) %MON dynstat_uvel_min             =  -3.7935640948153E-02
(PID.TID 0000.0001) %MON dynstat_uvel_mean            =   2.1467804782750E-09
(PID.TID 0000.0001) %MON dynstat_uvel_sd              =   1.0562449528126E-03
(PID.TID 0000.0001) %MON dynstat_uvel_del2            =   1.6197344635433E-06
(PID.TID 0000.0001) %MON dynstat_vvel_max             =   2.5330558497457E-02
(PID.TID 0000.0001) %MON dynstat_vvel_min             =  -9.8396977157829E-03
(PID.TID 0000.0001) %MON dynstat_vvel_mean            =   6.2039470936134E-08
(PID.TID 0000.0001) %MON dynstat_vvel_sd              =   4.9362986383595E-04
(PID.TID 0000.0001) %MON dynstat_vvel_del2            =   1.3140251278488E-06
(PID.TID 0000.0001) %MON dynstat_wvel_max             =   1.5274685946998E-03
(PID.TID 0000.0001) %MON dynstat_wvel_min             =  -1.9150538246177E-03
(PID.TID 0000.0001) %MON dynstat_wvel_mean            =   4.4889727431541E-10
(PID.TID 0000.0001) %MON dynstat_wvel_sd              =   2.5045369374796E-05
(PID.TID 0000.0001) %MON dynstat_wvel_del2            =   1.0139642952500E-07
(PID.TID 0000.0001) %MON dynstat_theta_max            =   1.2000000000000E+00
(PID.TID 0000.0001) %MON dynstat_theta_min            =  -1.0000000000000E+00
(PID.TID 0000.0001) %MON dynstat_theta_mean           =   5.6505847587919E-01
(PID.TID 0000.0001) %MON dynstat_theta_sd             =   8.4890757073673E-01
(PID.TID 0000.0001) %MON dynstat_theta_del2           =   3.6587020383779E-06
(PID.TID 0000.0001) %MON dynstat_salt_max             =   3.4700000000000E+01
(PID.TID 0000.0001) %MON dynstat_salt_min             =   3.4000000000000E+01
(PID.TID 0000.0001) %MON dynstat_salt_mean            =   3.4497937433494E+01
(PID.TID 0000.0001) %MON dynstat_salt_sd              =   2.7010061869640E-01
(PID.TID 0000.0001) %MON dynstat_salt_del2            =   1.4481413564469E-06
(PID.TID 0000.0001) %MON advcfl_uvel_max              =   3.7935640948153E-03
(PID.TID 0000.0001) %MON advcfl_vvel_max              =   2.5330558497457E-03
(PID.TID 0000.0001) %MON advcfl_wvel_max              =   9.5752691230887E-03
(PID.TID 0000.0001) %MON advcfl_W_hf_max              =   9.5752691230887E-03
(PID.TID 0000.0001) %MON pe_b_mean                    =  -6.8184617737735E-01
(PID.TID 0000.0001) %MON ke_max                       =   6.1454370925461E-04
(PID.TID 0000.0001) %MON ke_mean                      =   6.6917203824865E-07
(PID.TID 0000.0001) %MON ke_vol                       =   4.6183093271622E+12
(PID.TID 0000.0001) // =======================================================
(PID.TID 0000.0001) // End MONITOR dynamic field statistics
(PID.TID 0000.0001) // =======================================================
(PID.TID 0000.0001) // =======================================================
(PID.TID 0000.0001) // Begin OBCS MONITOR field statistics
(PID.TID 0000.0001) // =======================================================
(PID.TID 0000.0001) %MON obc_N_vVel_max               =   1.5889556636950E-08
(PID.TID 0000.0001) %MON obc_N_vVel_min               =   1.5889556636949E-08
(PID.TID 0000.0001) %MON obc_N_vVel_mean              =   1.5889556636950E-08
(PID.TID 0000.0001) %MON obc_N_vVel_sd                =  -1.3854369647944E-29
(PID.TID 0000.0001) %MON obc_N_vVel_Int               =   1.0487107380387E+00
(PID.TID 0000.0001) // =======================================================
(PID.TID 0000.0001) // End OBCS MONITOR field statistics
(PID.TID 0000.0001) // =======================================================
 cg2d: Sum(rhs),rhsMax =   3.00806216832891E+00  4.53042654910241E+02
(PID.TID 0000.0001)      cg2d_init_res =   4.15685387734261E-06
(PID.TID 0000.0001)      cg2d_iters(min,last) =      -1      76
(PID.TID 0000.0001)      cg2d_last_res =   8.97826825259647E-12
(PID.TID 0000.0001) // =======================================================
(PID.TID 0000.0001) // Begin MONITOR dynamic field statistics
(PID.TID 0000.0001) // =======================================================
(PID.TID 0000.0001) %MON time_tsnumber                =                  1253
(PID.TID 0000.0001) %MON time_secondsf                =   1.2530000000000E+05
(PID.TID 0000.0001) %MON dynstat_eta_max              =   5.7989384201251E+00
(PID.TID 0000.0001) %MON dynstat_eta_min              =  -1.4169828952151E+01
(PID.TID 0000.0001) %MON dynstat_eta_mean             =  -2.5236675386570E+00
(PID.TID 0000.0001) %MON dynstat_eta_sd               =   4.9409604910246E+00
(PID.TID 0000.0001) %MON dynstat_eta_del2             =   1.9058888881195E-01
(PID.TID 0000.0001) %MON dynstat_uvel_max             =   8.2906368355111E-03
(PID.TID 0000.0001) %MON dynstat_uvel_min             =  -3.8019764870022E-02
(PID.TID 0000.0001) %MON dynstat_uvel_mean            =   2.1749503224415E-09
(PID.TID 0000.0001) %MON dynstat_uvel_sd              =   1.0587481663553E-03
(PID.TID 0000.0001) %MON dynstat_uvel_del2            =   1.6236372680744E-06
(PID.TID 0000.0001) %MON dynstat_vvel_max             =   2.5371894315155E-02
(PID.TID 0000.0001) %MON dynstat_vvel_min             =  -9.8600254211370E-03
(PID.TID 0000.0001) %MON dynstat_vvel_mean            =   7.4321465165994E-08
(PID.TID 0000.0001) %MON dynstat_vvel_sd              =   4.9461388035222E-04
(PID.TID 0000.0001) %MON dynstat_vvel_del2            =   1.3166381684138E-06
(PID.TID 0000.0001) %MON dynstat_wvel_max             =   1.5305823084668E-03
(PID.TID 0000.0001) %MON dynstat_wvel_min             =  -1.9197579319944E-03
(PID.TID 0000.0001) %MON dynstat_wvel_mean            =   4.4319799130098E-10
(PID.TID 0000.0001) %MON dynstat_wvel_sd              =   2.5100758887336E-05
(PID.TID 0000.0001) %MON dynstat_wvel_del2            =   1.0160218356645E-07
(PID.TID 0000.0001) %MON dynstat_theta_max            =   1.2000000000000E+00
(PID.TID 0000.0001) %MON dynstat_theta_min            =  -1.0000000000000E+00
(PID.TID 0000.0001) %MON dynstat_theta_mean           =   5.6505765342615E-01
(PID.TID 0000.0001) %MON dynstat_theta_sd             =   8.4890720011757E-01
(PID.TID 0000.0001) %MON dynstat_theta_del2           =   3.6657225507772E-06
(PID.TID 0000.0001) %MON dynstat_salt_max             =   3.4700000000000E+01
(PID.TID 0000.0001) %MON dynstat_salt_min             =   3.4000000000000E+01
(PID.TID 0000.0001) %MON dynstat_salt_mean            =   3.4497937104897E+01
(PID.TID 0000.0001) %MON dynstat_salt_sd              =   2.7010047869947E-01
(PID.TID 0000.0001) %MON dynstat_salt_del2            =   1.4509291301327E-06
(PID.TID 0000.0001) %MON advcfl_uvel_max              =   3.8019764870022E-03
(PID.TID 0000.0001) %MON advcfl_vvel_max              =   2.5371894315155E-03
(PID.TID 0000.0001) %MON advcfl_wvel_max              =   9.5987896599719E-03
(PID.TID 0000.0001) %MON advcfl_W_hf_max              =   9.5987896599719E-03
(PID.TID 0000.0001) %MON pe_b_mean                    =  -6.8184397336977E-01
(PID.TID 0000.0001) %MON ke_max                       =   6.1761091896882E-04
(PID.TID 0000.0001) %MON ke_mean                      =   6.7225562678912E-07
(PID.TID 0000.0001) %MON ke_vol                       =   4.6183093709928E+12
(PID.TID 0000.0001) // =======================================================
(PID.TID 0000.0001) // End MONITOR dynamic field statistics
(PID.TID 0000.0001) // =======================================================
(PID.TID 0000.0001) // =======================================================
(PID.TID 0000.0001) // Begin OBCS MONITOR field statistics
(PID.TID 0000.0001) // =======================================================
(PID.TID 0000.0001) %MON obc_N_vVel_max               =   2.7998361814934E-08
(PID.TID 0000.0001) %MON obc_N_vVel_min               =   2.7998361814933E-08
(PID.TID 0000.0001) %MON obc_N_vVel_mean              =   2.7998361814934E-08
(PID.TID 0000.0001) %MON obc_N_vVel_sd                =  -4.8219122831634E-29
(PID.TID 0000.0001) %MON obc_N_vVel_Int               =   1.8478918797856E+00
(PID.TID 0000.0001) // =======================================================
(PID.TID 0000.0001) // End OBCS MONITOR field statistics
(PID.TID 0000.0001) // =======================================================
 cg2d: Sum(rhs),rhsMax =   3.00805345030906E+00  4.53042643365136E+02
(PID.TID 0000.0001)      cg2d_init_res =   4.16357784399183E-06
(PID.TID 0000.0001)      cg2d_iters(min,last) =      -1      76
(PID.TID 0000.0001)      cg2d_last_res =   8.99495182875376E-12
(PID.TID 0000.0001) // =======================================================
(PID.TID 0000.0001) // Begin MONITOR dynamic field statistics
(PID.TID 0000.0001) // =======================================================
(PID.TID 0000.0001) %MON time_tsnumber                =                  1254
(PID.TID 0000.0001) %MON time_secondsf                =   1.2540000000000E+05
(PID.TID 0000.0001) %MON dynstat_eta_max              =   5.7989411117886E+00
(PID.TID 0000.0001) %MON dynstat_eta_min              =  -1.4169813369923E+01
(PID.TID 0000.0001) %MON dynstat_eta_mean             =  -2.5236601602067E+00
(PID.TID 0000.0001) %MON dynstat_eta_sd               =   4.9409583843514E+00
(PID.TID 0000.0001) %MON dynstat_eta_del2             =   1.9058891121907E-01
(PID.TID 0000.0001) %MON dynstat_uvel_max             =   8.3100325670387E-03
(PID.TID 0000.0001) %MON dynstat_uvel_min             =  -3.8103977663914E-02
(PID.TID 0000.0001) %MON dynstat_uvel_mean            =   2.2116665128613E-09
(PID.TID 0000.0001) %MON dynstat_uvel_sd              =   1.0612564779782E-03
(PID.TID 0000.0001) %MON dynstat_uvel_del2            =   1.6275488001464E-06
(PID.TID 0000.0001) %MON dynstat_vvel_max             =   2.5413243675110E-02
(PID.TID 0000.0001) %MON dynstat_vvel_min             =  -9.8873174267826E-03
(PID.TID 0000.0001) %MON dynstat_vvel_mean            =   8.5943477455989E-08
(PID.TID 0000.0001) %MON dynstat_vvel_sd              =   4.9559948355312E-04
(PID.TID 0000.0001) %MON dynstat_vvel_del2            =   1.3192522198846E-06
(PID.TID 0000.0001) %MON dynstat_wvel_max             =   1.5336991154048E-03
(PID.TID 0000.0001) %MON dynstat_wvel_min             =  -1.9244655919107E-03
(PID.TID 0000.0001) %MON dynstat_wvel_mean            =   4.3622506754663E-10
(PID.TID 0000.0001) %MON dynstat_wvel_sd              =   2.5154771061537E-05
(PID.TID 0000.0001) %MON dynstat_wvel_del2            =   1.0180101748249E-07
(PID.TID 0000.0001) %MON dynstat_theta_max            =   1.2000000000000E+00
(PID.TID 0000.0001) %MON dynstat_theta_min            =  -1.0000000000000E+00
(PID.TID 0000.0001) %MON dynstat_theta_mean           =   5.6505682954627E-01
(PID.TID 0000.0001) %MON dynstat_theta_sd             =   8.4890682879280E-01
(PID.TID 0000.0001) %MON dynstat_theta_del2           =   3.6727545215621E-06
(PID.TID 0000.0001) %MON dynstat_salt_max             =   3.4700000000000E+01
(PID.TID 0000.0001) %MON dynstat_salt_min             =   3.4000000000000E+01
(PID.TID 0000.0001) %MON dynstat_salt_mean            =   3.4497936775728E+01
(PID.TID 0000.0001) %MON dynstat_salt_sd              =   2.7010033843598E-01
(PID.TID 0000.0001) %MON dynstat_salt_del2            =   1.4537210844511E-06
(PID.TID 0000.0001) %MON advcfl_uvel_max              =   3.8103977663914E-03
(PID.TID 0000.0001) %MON advcfl_vvel_max              =   2.5413243675110E-03
(PID.TID 0000.0001) %MON advcfl_wvel_max              =   9.6223279595535E-03
(PID.TID 0000.0001) %MON advcfl_W_hf_max              =   9.6223279595535E-03
(PID.TID 0000.0001) %MON pe_b_mean                    =  -6.8184176780058E-01
(PID.TID 0000.0001) %MON ke_max                       =   6.2069103825099E-04
(PID.TID 0000.0001) %MON ke_mean                      =   6.7535242695871E-07
(PID.TID 0000.0001) %MON ke_vol                       =   4.6183094148204E+12
(PID.TID 0000.0001) // =======================================================
(PID.TID 0000.0001) // End MONITOR dynamic field statistics
(PID.TID 0000.0001) // =======================================================
(PID.TID 0000.0001) // =======================================================
(PID.TID 0000.0001) // Begin OBCS MONITOR field statistics
(PID.TID 0000.0001) // =======================================================
(PID.TID 0000.0001) %MON obc_N_vVel_max               =   3.9599872011656E-08
(PID.TID 0000.0001) %MON obc_N_vVel_min               =   3.9599872011656E-08
(PID.TID 0000.0001) %MON obc_N_vVel_mean              =   3.9599872011656E-08
(PID.TID 0000.0001) %MON obc_N_vVel_sd                =   6.2488890859448E-15
(PID.TID 0000.0001) %MON obc_N_vVel_Int               =   2.6135915527693E+00
(PID.TID 0000.0001) // =======================================================
(PID.TID 0000.0001) // End OBCS MONITOR field statistics
(PID.TID 0000.0001) // =======================================================
 cg2d: Sum(rhs),rhsMax =   3.00804472986118E+00  4.53042632030812E+02
(PID.TID 0000.0001)      cg2d_init_res =   4.17033464899549E-06
(PID.TID 0000.0001)      cg2d_iters(min,last) =      -1      76
(PID.TID 0000.0001)      cg2d_last_res =   9.01176110970186E-12
(PID.TID 0000.0001) // =======================================================
(PID.TID 0000.0001) // Begin MONITOR dynamic field statistics
(PID.TID 0000.0001) // =======================================================
(PID.TID 0000.0001) %MON time_tsnumber                =                  1255
(PID.TID 0000.0001) %MON time_secondsf                =   1.2550000000000E+05
(PID.TID 0000.0001) %MON dynstat_eta_max              =   5.7989437848731E+00
(PID.TID 0000.0001) %MON dynstat_eta_min              =  -1.4169797781152E+01
(PID.TID 0000.0001) %MON dynstat_eta_mean             =  -2.5236527808939E+00
(PID.TID 0000.0001) %MON dynstat_eta_sd               =   4.9409562773140E+00
(PID.TID 0000.0001) %MON dynstat_eta_del2             =   1.9058893367524E-01
(PID.TID 0000.0001) %MON dynstat_uvel_max             =   8.3294609107902E-03
(PID.TID 0000.0001) %MON dynstat_uvel_min             =  -3.8188279325468E-02
(PID.TID 0000.0001) %MON dynstat_uvel_mean            =   2.2564091624592E-09
(PID.TID 0000.0001) %MON dynstat_uvel_sd              =   1.0637698962160E-03
(PID.TID 0000.0001) %MON dynstat_uvel_del2            =   1.6314690731790E-06
(PID.TID 0000.0001) %MON dynstat_vvel_max             =   2.5454606460829E-02
(PID.TID 0000.0001) %MON dynstat_vvel_min             =  -9.9172915630206E-03
(PID.TID 0000.0001) %MON dynstat_vvel_mean            =   9.6724946798281E-08
(PID.TID 0000.0001) %MON dynstat_vvel_sd              =   4.9658666657976E-04
(PID.TID 0000.0001) %MON dynstat_vvel_del2            =   1.3218672780548E-06
(PID.TID 0000.0001) %MON dynstat_wvel_max             =   1.5368190117518E-03
(PID.TID 0000.0001) %MON dynstat_wvel_min             =  -1.9291767456032E-03
(PID.TID 0000.0001) %MON dynstat_wvel_mean            =   4.2811424816078E-10
(PID.TID 0000.0001) %MON dynstat_wvel_sd              =   2.5207370846723E-05
(PID.TID 0000.0001) %MON dynstat_wvel_del2            =   1.0199254728427E-07
(PID.TID 0000.0001) %MON dynstat_theta_max            =   1.2000000000000E+00
(PID.TID 0000.0001) %MON dynstat_theta_min            =  -1.0000000000000E+00
(PID.TID 0000.0001) %MON dynstat_theta_mean           =   5.6505600423699E-01
(PID.TID 0000.0001) %MON dynstat_theta_sd             =   8.4890645676267E-01
(PID.TID 0000.0001) %MON dynstat_theta_del2           =   3.6797981461957E-06
(PID.TID 0000.0001) %MON dynstat_salt_max             =   3.4700000000000E+01
(PID.TID 0000.0001) %MON dynstat_salt_min             =   3.4000000000000E+01
(PID.TID 0000.0001) %MON dynstat_salt_mean            =   3.4497936445987E+01
(PID.TID 0000.0001) %MON dynstat_salt_sd              =   2.7010019790603E-01
(PID.TID 0000.0001) %MON dynstat_salt_del2            =   1.4565172837531E-06
(PID.TID 0000.0001) %MON advcfl_uvel_max              =   3.8188279325468E-03
(PID.TID 0000.0001) %MON advcfl_vvel_max              =   2.5454606460829E-03
(PID.TID 0000.0001) %MON advcfl_wvel_max              =   9.6458837280160E-03
(PID.TID 0000.0001) %MON advcfl_W_hf_max              =   9.6458837280160E-03
(PID.TID 0000.0001) %MON pe_b_mean                    =  -6.8183956047222E-01
(PID.TID 0000.0001) %MON ke_max                       =   6.2378411157491E-04
(PID.TID 0000.0001) %MON ke_mean                      =   6.7846248655241E-07
(PID.TID 0000.0001) %MON ke_vol                       =   4.6183094586484E+12
(PID.TID 0000.0001) // =======================================================
(PID.TID 0000.0001) // End MONITOR dynamic field statistics
(PID.TID 0000.0001) // =======================================================
(PID.TID 0000.0001) // =======================================================
(PID.TID 0000.0001) // Begin OBCS MONITOR field statistics
(PID.TID 0000.0001) // =======================================================
(PID.TID 0000.0001) %MON obc_N_vVel_max               =   5.0511487294599E-08
(PID.TID 0000.0001) %MON obc_N_vVel_min               =   5.0511487294598E-08
(PID.TID 0000.0001) %MON obc_N_vVel_mean              =   5.0511487294599E-08
(PID.TID 0000.0001) %MON obc_N_vVel_sd                =  -8.7169130026922E-29
(PID.TID 0000.0001) %MON obc_N_vVel_Int               =   3.3337581614436E+00
(PID.TID 0000.0001) // =======================================================
(PID.TID 0000.0001) // End OBCS MONITOR field statistics
(PID.TID 0000.0001) // =======================================================
 cg2d: Sum(rhs),rhsMax =   3.00803600627736E+00  4.53042620838396E+02
(PID.TID 0000.0001)      cg2d_init_res =   4.17712713520315E-06
(PID.TID 0000.0001)      cg2d_iters(min,last) =      -1      76
(PID.TID 0000.0001)      cg2d_last_res =   9.02874879136335E-12
(PID.TID 0000.0001) // =======================================================
(PID.TID 0000.0001) // Begin MONITOR dynamic field statistics
(PID.TID 0000.0001) // =======================================================
(PID.TID 0000.0001) %MON time_tsnumber                =                  1256
(PID.TID 0000.0001) %MON time_secondsf                =   1.2560000000000E+05
(PID.TID 0000.0001) %MON dynstat_eta_max              =   5.7989464412049E+00
(PID.TID 0000.0001) %MON dynstat_eta_min              =  -1.4169782183629E+01
(PID.TID 0000.0001) %MON dynstat_eta_mean             =  -2.5236453997410E+00
(PID.TID 0000.0001) %MON dynstat_eta_sd               =   4.9409541694427E+00
(PID.TID 0000.0001) %MON dynstat_eta_del2             =   1.9058895617935E-01
(PID.TID 0000.0001) %MON dynstat_uvel_max             =   8.3489218115238E-03
(PID.TID 0000.0001) %MON dynstat_uvel_min             =  -3.8272669853087E-02
(PID.TID 0000.0001) %MON dynstat_uvel_mean            =   2.3085238611391E-09
(PID.TID 0000.0001) %MON dynstat_uvel_sd              =   1.0662884295795E-03
(PID.TID 0000.0001) %MON dynstat_uvel_del2            =   1.6353981006382E-06
(PID.TID 0000.0001) %MON dynstat_vvel_max             =   2.5495982557998E-02
(PID.TID 0000.0001) %MON dynstat_vvel_min             =  -9.9473403489174E-03
(PID.TID 0000.0001) %MON dynstat_vvel_mean            =   1.0650109732433E-07
(PID.TID 0000.0001) %MON dynstat_vvel_sd              =   4.9757544519994E-04
(PID.TID 0000.0001) %MON dynstat_vvel_del2            =   1.3244834893144E-06
(PID.TID 0000.0001) %MON dynstat_wvel_max             =   1.5399419936518E-03
(PID.TID 0000.0001) %MON dynstat_wvel_min             =  -1.9338913339279E-03
(PID.TID 0000.0001) %MON dynstat_wvel_mean            =   4.1901888893739E-10
(PID.TID 0000.0001) %MON dynstat_wvel_sd              =   2.5258627810850E-05
(PID.TID 0000.0001) %MON dynstat_wvel_del2            =   1.0217692977807E-07
(PID.TID 0000.0001) %MON dynstat_theta_max            =   1.2000000000000E+00
(PID.TID 0000.0001) %MON dynstat_theta_min            =  -1.0000000000000E+00
(PID.TID 0000.0001) %MON dynstat_theta_mean           =   5.6505517749569E-01
(PID.TID 0000.0001) %MON dynstat_theta_sd             =   8.4890608402887E-01
(PID.TID 0000.0001) %MON dynstat_theta_del2           =   3.6868534850913E-06
(PID.TID 0000.0001) %MON dynstat_salt_max             =   3.4700000000000E+01
(PID.TID 0000.0001) %MON dynstat_salt_min             =   3.4000000000000E+01
(PID.TID 0000.0001) %MON dynstat_salt_mean            =   3.4497936115671E+01
(PID.TID 0000.0001) %MON dynstat_salt_sd              =   2.7010005711033E-01
(PID.TID 0000.0001) %MON dynstat_salt_del2            =   1.4593177489065E-06
(PID.TID 0000.0001) %MON advcfl_uvel_max              =   3.8272669853087E-03
(PID.TID 0000.0001) %MON advcfl_vvel_max              =   2.5495982557998E-03
(PID.TID 0000.0001) %MON advcfl_wvel_max              =   9.6694566696393E-03
(PID.TID 0000.0001) %MON advcfl_W_hf_max              =   9.6694566696393E-03
(PID.TID 0000.0001) %MON pe_b_mean                    =  -6.8183735115284E-01
(PID.TID 0000.0001) %MON ke_max                       =   6.2689018355270E-04
(PID.TID 0000.0001) %MON ke_mean                      =   6.8158586473526E-07
(PID.TID 0000.0001) %MON ke_vol                       =   4.6183095024815E+12
(PID.TID 0000.0001) // =======================================================
(PID.TID 0000.0001) // End MONITOR dynamic field statistics
(PID.TID 0000.0001) // =======================================================
(PID.TID 0000.0001) // =======================================================
(PID.TID 0000.0001) // Begin OBCS MONITOR field statistics
(PID.TID 0000.0001) // =======================================================
(PID.TID 0000.0001) %MON obc_N_vVel_max               =   6.0563927955135E-08
(PID.TID 0000.0001) %MON obc_N_vVel_min               =   6.0563927955133E-08
(PID.TID 0000.0001) %MON obc_N_vVel_mean              =   6.0563927955135E-08
(PID.TID 0000.0001) %MON obc_N_vVel_sd                =  -1.4909471108677E-28
(PID.TID 0000.0001) %MON obc_N_vVel_Int               =   3.9972192450389E+00
(PID.TID 0000.0001) // =======================================================
(PID.TID 0000.0001) // End OBCS MONITOR field statistics
(PID.TID 0000.0001) // =======================================================
 cg2d: Sum(rhs),rhsMax =   3.00802727865697E+00  4.53042609717510E+02
(PID.TID 0000.0001)      cg2d_init_res =   4.18396263754636E-06
(PID.TID 0000.0001)      cg2d_iters(min,last) =      -1      76
(PID.TID 0000.0001)      cg2d_last_res =   9.04595086931465E-12
(PID.TID 0000.0001) // =======================================================
(PID.TID 0000.0001) // Begin MONITOR dynamic field statistics
(PID.TID 0000.0001) // =======================================================
(PID.TID 0000.0001) %MON time_tsnumber                =                  1257
(PID.TID 0000.0001) %MON time_secondsf                =   1.2570000000000E+05
(PID.TID 0000.0001) %MON dynstat_eta_max              =   5.7989490828640E+00
(PID.TID 0000.0001) %MON dynstat_eta_min              =  -1.4169766574857E+01
(PID.TID 0000.0001) %MON dynstat_eta_mean             =  -2.5236380156004E+00
(PID.TID 0000.0001) %MON dynstat_eta_sd               =   4.9409520602277E+00
(PID.TID 0000.0001) %MON dynstat_eta_del2             =   1.9058897873018E-01
(PID.TID 0000.0001) %MON dynstat_uvel_max             =   8.3684152125070E-03
(PID.TID 0000.0001) %MON dynstat_uvel_min             =  -3.8357149248104E-02
(PID.TID 0000.0001) %MON dynstat_uvel_mean            =   2.3672367033059E-09
(PID.TID 0000.0001) %MON dynstat_uvel_sd              =   1.0688120865534E-03
(PID.TID 0000.0001) %MON dynstat_uvel_del2            =   1.6393358960332E-06
(PID.TID 0000.0001) %MON dynstat_vvel_max             =   2.5537371854806E-02
(PID.TID 0000.0001) %MON dynstat_vvel_min             =  -9.9774637504080E-03
(PID.TID 0000.0001) %MON dynstat_vvel_mean            =   1.1512559396392E-07
(PID.TID 0000.0001) %MON dynstat_vvel_sd              =   4.9856585647054E-04
(PID.TID 0000.0001) %MON dynstat_vvel_del2            =   1.3271011374468E-06
(PID.TID 0000.0001) %MON dynstat_wvel_max             =   1.5430680571428E-03
(PID.TID 0000.0001) %MON dynstat_wvel_min             =  -1.9386092974032E-03
(PID.TID 0000.0001) %MON dynstat_wvel_mean            =   4.0910767511319E-10
(PID.TID 0000.0001) %MON dynstat_wvel_sd              =   2.5308708598406E-05
(PID.TID 0000.0001) %MON dynstat_wvel_del2            =   1.0235483383634E-07
(PID.TID 0000.0001) %MON dynstat_theta_max            =   1.2000000000000E+00
(PID.TID 0000.0001) %MON dynstat_theta_min            =  -1.0000000000000E+00
(PID.TID 0000.0001) %MON dynstat_theta_mean           =   5.6505434931975E-01
(PID.TID 0000.0001) %MON dynstat_theta_sd             =   8.4890571059357E-01
(PID.TID 0000.0001) %MON dynstat_theta_del2           =   3.6939200431411E-06
(PID.TID 0000.0001) %MON dynstat_salt_max             =   3.4700000000000E+01
(PID.TID 0000.0001) %MON dynstat_salt_min             =   3.4000000000000E+01
(PID.TID 0000.0001) %MON dynstat_salt_mean            =   3.4497935784780E+01
(PID.TID 0000.0001) %MON dynstat_salt_sd              =   2.7009991604928E-01
(PID.TID 0000.0001) %MON dynstat_salt_del2            =   1.4621224416943E-06
(PID.TID 0000.0001) %MON advcfl_uvel_max              =   3.8357149248104E-03
(PID.TID 0000.0001) %MON advcfl_vvel_max              =   2.5537371854806E-03
(PID.TID 0000.0001) %MON advcfl_wvel_max              =   9.6930464870159E-03
(PID.TID 0000.0001) %MON advcfl_W_hf_max              =   9.6930464870159E-03
(PID.TID 0000.0001) %MON pe_b_mean                    =  -6.8183513958043E-01
(PID.TID 0000.0001) %MON ke_max                       =   6.3000929893772E-04
(PID.TID 0000.0001) %MON ke_mean                      =   6.8472263148828E-07
(PID.TID 0000.0001) %MON ke_vol                       =   4.6183095463255E+12
(PID.TID 0000.0001) // =======================================================
(PID.TID 0000.0001) // End MONITOR dynamic field statistics
(PID.TID 0000.0001) // =======================================================
(PID.TID 0000.0001) // =======================================================
(PID.TID 0000.0001) // Begin OBCS MONITOR field statistics
(PID.TID 0000.0001) // =======================================================
(PID.TID 0000.0001) %MON obc_N_vVel_max               =   6.9603946810745E-08
(PID.TID 0000.0001) %MON obc_N_vVel_min               =   6.9603946810743E-08
(PID.TID 0000.0001) %MON obc_N_vVel_mean              =   6.9603946810745E-08
(PID.TID 0000.0001) %MON obc_N_vVel_sd                =  -3.6524259911733E-28
(PID.TID 0000.0001) %MON obc_N_vVel_Int               =   4.5938604895092E+00
(PID.TID 0000.0001) // =======================================================
(PID.TID 0000.0001) // End OBCS MONITOR field statistics
(PID.TID 0000.0001) // =======================================================
 cg2d: Sum(rhs),rhsMax =   3.00801854592342E+00  4.53042598597220E+02
(PID.TID 0000.0001)      cg2d_init_res =   4.19085919912395E-06
(PID.TID 0000.0001)      cg2d_iters(min,last) =      -1      76
(PID.TID 0000.0001)      cg2d_last_res =   9.06340917653842E-12
(PID.TID 0000.0001) // =======================================================
(PID.TID 0000.0001) // Begin MONITOR dynamic field statistics
(PID.TID 0000.0001) // =======================================================
(PID.TID 0000.0001) %MON time_tsnumber                =                  1258
(PID.TID 0000.0001) %MON time_secondsf                =   1.2580000000000E+05
(PID.TID 0000.0001) %MON dynstat_eta_max              =   5.7989517121496E+00
(PID.TID 0000.0001) %MON dynstat_eta_min              =  -1.4169750952111E+01
(PID.TID 0000.0001) %MON dynstat_eta_mean             =  -2.5236306271737E+00
(PID.TID 0000.0001) %MON dynstat_eta_sd               =   4.9409499491315E+00
(PID.TID 0000.0001) %MON dynstat_eta_del2             =   1.9058900132680E-01
(PID.TID 0000.0001) %MON dynstat_uvel_max             =   8.3879410555898E-03
(PID.TID 0000.0001) %MON dynstat_uvel_min             =  -3.8441717514968E-02
(PID.TID 0000.0001) %MON dynstat_uvel_mean            =   2.4316661015891E-09
(PID.TID 0000.0001) %MON dynstat_uvel_sd              =   1.0713408756440E-03
(PID.TID 0000.0001) %MON dynstat_uvel_del2            =   1.6432824749474E-06
(PID.TID 0000.0001) %MON dynstat_vvel_max             =   2.5578774242106E-02
(PID.TID 0000.0001) %MON dynstat_vvel_min             =  -1.0007661728919E-02
(PID.TID 0000.0001) %MON dynstat_vvel_mean            =   1.2247287365427E-07
(PID.TID 0000.0001) %MON dynstat_vvel_sd              =   4.9955795572852E-04
(PID.TID 0000.0001) %MON dynstat_vvel_del2            =   1.3297206192088E-06
(PID.TID 0000.0001) %MON dynstat_wvel_max             =   1.5461971981518E-03
(PID.TID 0000.0001) %MON dynstat_wvel_min             =  -1.9433305762480E-03
(PID.TID 0000.0001) %MON dynstat_wvel_mean            =   3.9856084320899E-10
(PID.TID 0000.0001) %MON dynstat_wvel_sd              =   2.5357862964841E-05
(PID.TID 0000.0001) %MON dynstat_wvel_del2            =   1.0252737681280E-07
(PID.TID 0000.0001) %MON dynstat_theta_max            =   1.2000000000000E+00
(PID.TID 0000.0001) %MON dynstat_theta_min            =  -1.0000000000000E+00
(PID.TID 0000.0001) %MON dynstat_theta_mean           =   5.6505351970641E-01
(PID.TID 0000.0001) %MON dynstat_theta_sd             =   8.4890533645853E-01
(PID.TID 0000.0001) %MON dynstat_theta_del2           =   3.7009972074300E-06
(PID.TID 0000.0001) %MON dynstat_salt_max             =   3.4700000000000E+01
(PID.TID 0000.0001) %MON dynstat_salt_min             =   3.4000000000000E+01
(PID.TID 0000.0001) %MON dynstat_salt_mean            =   3.4497935453313E+01
(PID.TID 0000.0001) %MON dynstat_salt_sd              =   2.7009977472367E-01
(PID.TID 0000.0001) %MON dynstat_salt_del2            =   1.4649313169421E-06
(PID.TID 0000.0001) %MON advcfl_uvel_max              =   3.8441717514968E-03
(PID.TID 0000.0001) %MON advcfl_vvel_max              =   2.5578774242106E-03
(PID.TID 0000.0001) %MON advcfl_wvel_max              =   9.7166528812400E-03
(PID.TID 0000.0001) %MON advcfl_W_hf_max              =   9.7166528812400E-03
(PID.TID 0000.0001) %MON pe_b_mean                    =  -6.8183292546704E-01
(PID.TID 0000.0001) %MON ke_max                       =   6.3314150262729E-04
(PID.TID 0000.0001) %MON ke_mean                      =   6.8787286626405E-07
(PID.TID 0000.0001) %MON ke_vol                       =   4.6183095901873E+12
(PID.TID 0000.0001) // =======================================================
(PID.TID 0000.0001) // End MONITOR dynamic field statistics
(PID.TID 0000.0001) // =======================================================
(PID.TID 0000.0001) // =======================================================
(PID.TID 0000.0001) // Begin OBCS MONITOR field statistics
(PID.TID 0000.0001) // =======================================================
(PID.TID 0000.0001) %MON obc_N_vVel_max               =   7.7496823835065E-08
(PID.TID 0000.0001) %MON obc_N_vVel_min               =   7.7496823835064E-08
(PID.TID 0000.0001) %MON obc_N_vVel_mean              =   7.7496823835065E-08
(PID.TID 0000.0001) %MON obc_N_vVel_sd                =  -2.8162334316390E-28
(PID.TID 0000.0001) %MON obc_N_vVel_Int               =   5.1147903731143E+00
(PID.TID 0000.0001) // =======================================================
(PID.TID 0000.0001) // End OBCS MONITOR field statistics
(PID.TID 0000.0001) // =======================================================
 cg2d: Sum(rhs),rhsMax =   3.00800980684132E+00  4.53042587407710E+02
(PID.TID 0000.0001)      cg2d_init_res =   4.19782258964892E-06
(PID.TID 0000.0001)      cg2d_iters(min,last) =      -1      76
(PID.TID 0000.0001)      cg2d_last_res =   9.08115203687228E-12
(PID.TID 0000.0001) // =======================================================
(PID.TID 0000.0001) // Begin MONITOR dynamic field statistics
(PID.TID 0000.0001) // =======================================================
(PID.TID 0000.0001) %MON time_tsnumber                =                  1259
(PID.TID 0000.0001) %MON time_secondsf                =   1.2590000000000E+05
(PID.TID 0000.0001) %MON dynstat_eta_max              =   5.7989543315363E+00
(PID.TID 0000.0001) %MON dynstat_eta_min              =  -1.4169735312466E+01
(PID.TID 0000.0001) %MON dynstat_eta_mean             =  -2.5236232330355E+00
(PID.TID 0000.0001) %MON dynstat_eta_sd               =   4.9409478355884E+00
(PID.TID 0000.0001) %MON dynstat_eta_del2             =   1.9058902396779E-01
(PID.TID 0000.0001) %MON dynstat_uvel_max             =   8.4074992810157E-03
(PID.TID 0000.0001) %MON dynstat_uvel_min             =  -3.8526374661016E-02
(PID.TID 0000.0001) %MON dynstat_uvel_mean            =   2.5008436694266E-09
(PID.TID 0000.0001) %MON dynstat_uvel_sd              =   1.0738748052941E-03
(PID.TID 0000.0001) %MON dynstat_uvel_del2            =   1.6472378516420E-06
(PID.TID 0000.0001) %MON dynstat_vvel_max             =   2.5620189613867E-02
(PID.TID 0000.0001) %MON dynstat_vvel_min             =  -1.0037934241081E-02
(PID.TID 0000.0001) %MON dynstat_vvel_mean            =   1.2844010946702E-07
(PID.TID 0000.0001) %MON dynstat_vvel_sd              =   5.0055181302578E-04
(PID.TID 0000.0001) %MON dynstat_vvel_del2            =   1.3323424190575E-06
(PID.TID 0000.0001) %MON dynstat_wvel_max             =   1.5493294124974E-03
(PID.TID 0000.0001) %MON dynstat_wvel_min             =  -1.9480551104633E-03
(PID.TID 0000.0001) %MON dynstat_wvel_mean            =   3.8756907360473E-10
(PID.TID 0000.0001) %MON dynstat_wvel_sd              =   2.5406404612524E-05
(PID.TID 0000.0001) %MON dynstat_wvel_del2            =   1.0269603443994E-07
(PID.TID 0000.0001) %MON dynstat_theta_max            =   1.2000000000000E+00
(PID.TID 0000.0001) %MON dynstat_theta_min            =  -1.0000000000000E+00
(PID.TID 0000.0001) %MON dynstat_theta_mean           =   5.6505268865286E-01
(PID.TID 0000.0001) %MON dynstat_theta_sd             =   8.4890496162536E-01
(PID.TID 0000.0001) %MON dynstat_theta_del2           =   3.7080851772280E-06
(PID.TID 0000.0001) %MON dynstat_salt_max             =   3.4700000000000E+01
(PID.TID 0000.0001) %MON dynstat_salt_min             =   3.4000000000000E+01
(PID.TID 0000.0001) %MON dynstat_salt_mean            =   3.4497935121269E+01
(PID.TID 0000.0001) %MON dynstat_salt_sd              =   2.7009963313387E-01
(PID.TID 0000.0001) %MON dynstat_salt_del2            =   1.4677440499230E-06
(PID.TID 0000.0001) %MON advcfl_uvel_max              =   3.8526374661016E-03
(PID.TID 0000.0001) %MON advcfl_vvel_max              =   2.5620189613867E-03
(PID.TID 0000.0001) %MON advcfl_wvel_max              =   9.7402755523167E-03
(PID.TID 0000.0001) %MON advcfl_W_hf_max              =   9.7402755523167E-03
(PID.TID 0000.0001) %MON pe_b_mean                    =  -6.8183070850417E-01
(PID.TID 0000.0001) %MON ke_max                       =   6.3628683965981E-04
(PID.TID 0000.0001) %MON ke_mean                      =   6.9103665620691E-07
(PID.TID 0000.0001) %MON ke_vol                       =   4.6183096340746E+12
(PID.TID 0000.0001) // =======================================================
(PID.TID 0000.0001) // End MONITOR dynamic field statistics
(PID.TID 0000.0001) // =======================================================
(PID.TID 0000.0001) // =======================================================
(PID.TID 0000.0001) // Begin OBCS MONITOR field statistics
(PID.TID 0000.0001) // =======================================================
(PID.TID 0000.0001) %MON obc_N_vVel_max               =   8.4128440387039E-08
(PID.TID 0000.0001) %MON obc_N_vVel_min               =   8.4128440387038E-08
(PID.TID 0000.0001) %MON obc_N_vVel_mean              =   8.4128440387038E-08
(PID.TID 0000.0001) %MON obc_N_vVel_sd                =   1.5383701491069E-14
(PID.TID 0000.0001) %MON obc_N_vVel_Int               =   5.5524770655445E+00
(PID.TID 0000.0001) // =======================================================
(PID.TID 0000.0001) // End OBCS MONITOR field statistics
(PID.TID 0000.0001) // =======================================================
 cg2d: Sum(rhs),rhsMax =   3.00800106004497E+00  4.53042576080687E+02
(PID.TID 0000.0001)      cg2d_init_res =   4.20485462345371E-06
(PID.TID 0000.0001)      cg2d_iters(min,last) =      -1      76
(PID.TID 0000.0001)      cg2d_last_res =   9.09920941916193E-12
(PID.TID 0000.0001) // =======================================================
(PID.TID 0000.0001) // Begin MONITOR dynamic field statistics
(PID.TID 0000.0001) // =======================================================
(PID.TID 0000.0001) %MON time_tsnumber                =                  1260
(PID.TID 0000.0001) %MON time_secondsf                =   1.2600000000000E+05
(PID.TID 0000.0001) %MON dynstat_eta_max              =   5.7989569436318E+00
(PID.TID 0000.0001) %MON dynstat_eta_min              =  -1.4169719652816E+01
(PID.TID 0000.0001) %MON dynstat_eta_mean             =  -2.5236158316597E+00
(PID.TID 0000.0001) %MON dynstat_eta_sd               =   4.9409457190213E+00
(PID.TID 0000.0001) %MON dynstat_eta_del2             =   1.9058904665172E-01
(PID.TID 0000.0001) %MON dynstat_uvel_max             =   8.4270898276140E-03
(PID.TID 0000.0001) %MON dynstat_uvel_min             =  -3.8611120696565E-02
(PID.TID 0000.0001) %MON dynstat_uvel_mean            =   2.5737286530582E-09
(PID.TID 0000.0001) %MON dynstat_uvel_sd              =   1.0764138839322E-03
(PID.TID 0000.0001) %MON dynstat_uvel_del2            =   1.6512020407117E-06
(PID.TID 0000.0001) %MON dynstat_vvel_max             =   2.5661617867224E-02
(PID.TID 0000.0001) %MON dynstat_vvel_min             =  -1.0068281238560E-02
(PID.TID 0000.0001) %MON dynstat_vvel_mean            =   1.3294879285860E-07
(PID.TID 0000.0001) %MON dynstat_vvel_sd              =   5.0154750811059E-04
(PID.TID 0000.0001) %MON dynstat_vvel_del2            =   1.3349670729537E-06
(PID.TID 0000.0001) %MON dynstat_wvel_max             =   1.5524646958732E-03
(PID.TID 0000.0001) %MON dynstat_wvel_min             =  -1.9527828397474E-03
(PID.TID 0000.0001) %MON dynstat_wvel_mean            =   3.7632796782726E-10
(PID.TID 0000.0001) %MON dynstat_wvel_sd              =   2.5454688105092E-05
(PID.TID 0000.0001) %MON dynstat_wvel_del2            =   1.0286252766286E-07
(PID.TID 0000.0001) %MON dynstat_theta_max            =   1.2000000000000E+00
(PID.TID 0000.0001) %MON dynstat_theta_min            =  -1.0000000000000E+00
(PID.TID 0000.0001) %MON dynstat_theta_mean           =   5.6505185615639E-01
(PID.TID 0000.0001) %MON dynstat_theta_sd             =   8.4890458609432E-01
(PID.TID 0000.0001) %MON dynstat_theta_del2           =   3.7151834598059E-06
(PID.TID 0000.0001) %MON dynstat_salt_max             =   3.4700000000000E+01
(PID.TID 0000.0001) %MON dynstat_salt_min             =   3.4000000000000E+01
(PID.TID 0000.0001) %MON dynstat_salt_mean            =   3.4497934788646E+01
(PID.TID 0000.0001) %MON dynstat_salt_sd              =   2.7009949127999E-01
(PID.TID 0000.0001) %MON dynstat_salt_del2            =   1.4705606395195E-06
(PID.TID 0000.0001) %MON advcfl_uvel_max              =   3.8611120696565E-03
(PID.TID 0000.0001) %MON advcfl_vvel_max              =   2.5661617867224E-03
(PID.TID 0000.0001) %MON advcfl_wvel_max              =   9.7639141987368E-03
(PID.TID 0000.0001) %MON advcfl_W_hf_max              =   9.7639141987368E-03
(PID.TID 0000.0001) %MON pe_b_mean                    =  -6.8182848836817E-01
(PID.TID 0000.0001) %MON ke_max                       =   6.3944535521195E-04
(PID.TID 0000.0001) %MON ke_mean                      =   6.9421409376449E-07
(PID.TID 0000.0001) %MON ke_vol                       =   4.6183096779958E+12
(PID.TID 0000.0001) // =======================================================
(PID.TID 0000.0001) // End MONITOR dynamic field statistics
(PID.TID 0000.0001) // =======================================================
(PID.TID 0000.0001) // =======================================================
(PID.TID 0000.0001) // Begin OBCS MONITOR field statistics
(PID.TID 0000.0001) // =======================================================
(PID.TID 0000.0001) %MON obc_N_vVel_max               =   8.9407118620926E-08
(PID.TID 0000.0001) %MON obc_N_vVel_min               =   8.9407118620926E-08
(PID.TID 0000.0001) %MON obc_N_vVel_mean              =   8.9407118620926E-08
(PID.TID 0000.0001) %MON obc_N_vVel_sd                =  -3.1554436208840E-28
(PID.TID 0000.0001) %MON obc_N_vVel_Int               =   5.9008698289811E+00
(PID.TID 0000.0001) // =======================================================
(PID.TID 0000.0001) // End OBCS MONITOR field statistics
(PID.TID 0000.0001) // =======================================================
 cg2d: Sum(rhs),rhsMax =   3.00799230405941E+00  4.53042564550746E+02
(PID.TID 0000.0001)      cg2d_init_res =   4.21199471473852E-06
(PID.TID 0000.0001)      cg2d_iters(min,last) =      -1      76
(PID.TID 0000.0001)      cg2d_last_res =   9.11760143243789E-12
(PID.TID 0000.0001) // =======================================================
(PID.TID 0000.0001) // Begin MONITOR dynamic field statistics
(PID.TID 0000.0001) // =======================================================
(PID.TID 0000.0001) %MON time_tsnumber                =                  1261
(PID.TID 0000.0001) %MON time_secondsf                =   1.2610000000000E+05
(PID.TID 0000.0001) %MON dynstat_eta_max              =   5.7989595511308E+00
(PID.TID 0000.0001) %MON dynstat_eta_min              =  -1.4169703969972E+01
(PID.TID 0000.0001) %MON dynstat_eta_mean             =  -2.5236084214444E+00
(PID.TID 0000.0001) %MON dynstat_eta_sd               =   4.9409435988541E+00
(PID.TID 0000.0001) %MON dynstat_eta_del2             =   1.9058906937744E-01
(PID.TID 0000.0001) %MON dynstat_uvel_max             =   8.4467126332948E-03
(PID.TID 0000.0001) %MON dynstat_uvel_min             =  -3.8695955634864E-02
(PID.TID 0000.0001) %MON dynstat_uvel_mean            =   2.6492266458301E-09
(PID.TID 0000.0001) %MON dynstat_uvel_sd              =   1.0789581199686E-03
(PID.TID 0000.0001) %MON dynstat_uvel_del2            =   1.6551750573586E-06
(PID.TID 0000.0001) %MON dynstat_vvel_max             =   2.5703058902654E-02
(PID.TID 0000.0001) %MON dynstat_vvel_min             =  -1.0098702634204E-02
(PID.TID 0000.0001) %MON dynstat_vvel_mean            =   1.3594586514633E-07
(PID.TID 0000.0001) %MON dynstat_vvel_sd              =   5.0254512506766E-04
(PID.TID 0000.0001) %MON dynstat_vvel_del2            =   1.3375951332391E-06
(PID.TID 0000.0001) %MON dynstat_wvel_max             =   1.5556030438702E-03
(PID.TID 0000.0001) %MON dynstat_wvel_min             =  -1.9575137091257E-03
(PID.TID 0000.0001) %MON dynstat_wvel_mean            =   3.6503580249633E-10
(PID.TID 0000.0001) %MON dynstat_wvel_sd              =   2.5503083678189E-05
(PID.TID 0000.0001) %MON dynstat_wvel_del2            =   1.0302869822349E-07
(PID.TID 0000.0001) %MON dynstat_theta_max            =   1.2000000000000E+00
(PID.TID 0000.0001) %MON dynstat_theta_min            =  -1.0000000000000E+00
(PID.TID 0000.0001) %MON dynstat_theta_mean           =   5.6505102221431E-01
(PID.TID 0000.0001) %MON dynstat_theta_sd             =   8.4890420986707E-01
(PID.TID 0000.0001) %MON dynstat_theta_del2           =   3.7222915281327E-06
(PID.TID 0000.0001) %MON dynstat_salt_max             =   3.4700000000000E+01
(PID.TID 0000.0001) %MON dynstat_salt_min             =   3.4000000000000E+01
(PID.TID 0000.0001) %MON dynstat_salt_mean            =   3.4497934455444E+01
(PID.TID 0000.0001) %MON dynstat_salt_sd              =   2.7009934916265E-01
(PID.TID 0000.0001) %MON dynstat_salt_del2            =   1.4733810883858E-06
(PID.TID 0000.0001) %MON advcfl_uvel_max              =   3.8695955634864E-03
(PID.TID 0000.0001) %MON advcfl_vvel_max              =   2.5703058902654E-03
(PID.TID 0000.0001) %MON advcfl_wvel_max              =   9.7875685456284E-03
(PID.TID 0000.0001) %MON advcfl_W_hf_max              =   9.7875685456284E-03
(PID.TID 0000.0001) %MON pe_b_mean                    =  -6.8182626472547E-01
(PID.TID 0000.0001) %MON ke_max                       =   6.4261709460372E-04
(PID.TID 0000.0001) %MON ke_mean                      =   6.9740527404228E-07
(PID.TID 0000.0001) %MON ke_vol                       =   4.6183097219599E+12
(PID.TID 0000.0001) // =======================================================
(PID.TID 0000.0001) // End MONITOR dynamic field statistics
(PID.TID 0000.0001) // =======================================================
(PID.TID 0000.0001) // =======================================================
(PID.TID 0000.0001) // Begin OBCS MONITOR field statistics
(PID.TID 0000.0001) // =======================================================
(PID.TID 0000.0001) %MON obc_N_vVel_max               =   9.3264933688285E-08
(PID.TID 0000.0001) %MON obc_N_vVel_min               =   9.3264933688282E-08
(PID.TID 0000.0001) %MON obc_N_vVel_mean              =   9.3264933688285E-08
(PID.TID 0000.0001) %MON obc_N_vVel_sd                =  -6.7368721305874E-28
(PID.TID 0000.0001) %MON obc_N_vVel_Int               =   6.1554856234268E+00
(PID.TID 0000.0001) // =======================================================
(PID.TID 0000.0001) // End OBCS MONITOR field statistics
(PID.TID 0000.0001) // =======================================================
 cg2d: Sum(rhs),rhsMax =   3.00798353732666E+00  4.53042552756301E+02
(PID.TID 0000.0001)      cg2d_init_res =   4.21925919250035E-06
(PID.TID 0000.0001)      cg2d_iters(min,last) =      -1      76
(PID.TID 0000.0001)      cg2d_last_res =   9.13634174234794E-12
(PID.TID 0000.0001) // =======================================================
(PID.TID 0000.0001) // Begin MONITOR dynamic field statistics
(PID.TID 0000.0001) // =======================================================
(PID.TID 0000.0001) %MON time_tsnumber                =                  1262
(PID.TID 0000.0001) %MON time_secondsf                =   1.2620000000000E+05
(PID.TID 0000.0001) %MON dynstat_eta_max              =   5.7989621567676E+00
(PID.TID 0000.0001) %MON dynstat_eta_min              =  -1.4169688260710E+01
(PID.TID 0000.0001) %MON dynstat_eta_mean             =  -2.5236010007396E+00
(PID.TID 0000.0001) %MON dynstat_eta_sd               =   4.9409414745178E+00
(PID.TID 0000.0001) %MON dynstat_eta_del2             =   1.9058909214384E-01
(PID.TID 0000.0001) %MON dynstat_uvel_max             =   8.4663676337238E-03
(PID.TID 0000.0001) %MON dynstat_uvel_min             =  -3.8780879492089E-02
(PID.TID 0000.0001) %MON dynstat_uvel_mean            =   2.7262119529853E-09
(PID.TID 0000.0001) %MON dynstat_uvel_sd              =   1.0815075217900E-03
(PID.TID 0000.0001) %MON dynstat_uvel_del2            =   1.6591569172161E-06
(PID.TID 0000.0001) %MON dynstat_vvel_max             =   2.5744512624161E-02
(PID.TID 0000.0001) %MON dynstat_vvel_min             =  -1.0129198369826E-02
(PID.TID 0000.0001) %MON dynstat_vvel_mean            =   1.3740442326681E-07
(PID.TID 0000.0001) %MON dynstat_vvel_sd              =   5.0354474680290E-04
(PID.TID 0000.0001) %MON dynstat_vvel_del2            =   1.3402271329524E-06
(PID.TID 0000.0001) %MON dynstat_wvel_max             =   1.5587444519569E-03
(PID.TID 0000.0001) %MON dynstat_wvel_min             =  -1.9622476576370E-03
(PID.TID 0000.0001) %MON dynstat_wvel_mean            =   3.5389035042769E-10
(PID.TID 0000.0001) %MON dynstat_wvel_sd              =   2.5551951554040E-05
(PID.TID 0000.0001) %MON dynstat_wvel_del2            =   1.0319637904023E-07
(PID.TID 0000.0001) %MON dynstat_theta_max            =   1.2000000000000E+00
(PID.TID 0000.0001) %MON dynstat_theta_min            =  -1.0000000000000E+00
(PID.TID 0000.0001) %MON dynstat_theta_mean           =   5.6505018682384E-01
(PID.TID 0000.0001) %MON dynstat_theta_sd             =   8.4890383294424E-01
(PID.TID 0000.0001) %MON dynstat_theta_del2           =   3.7294088588105E-06
(PID.TID 0000.0001) %MON dynstat_salt_max             =   3.4700000000000E+01
(PID.TID 0000.0001) %MON dynstat_salt_min             =   3.4000000000000E+01
(PID.TID 0000.0001) %MON dynstat_salt_mean            =   3.4497934121661E+01
(PID.TID 0000.0001) %MON dynstat_salt_sd              =   2.7009920678204E-01
(PID.TID 0000.0001) %MON dynstat_salt_del2            =   1.4762052492317E-06
(PID.TID 0000.0001) %MON advcfl_uvel_max              =   3.8780879492089E-03
(PID.TID 0000.0001) %MON advcfl_vvel_max              =   2.5744512624161E-03
(PID.TID 0000.0001) %MON advcfl_wvel_max              =   9.8112382881849E-03
(PID.TID 0000.0001) %MON advcfl_W_hf_max              =   9.8112382881849E-03
(PID.TID 0000.0001) %MON pe_b_mean                    =  -6.8182403723823E-01
(PID.TID 0000.0001) %MON ke_max                       =   6.4580210329434E-04
(PID.TID 0000.0001) %MON ke_mean                      =   7.0061029204485E-07
(PID.TID 0000.0001) %MON ke_vol                       =   4.6183097659766E+12
(PID.TID 0000.0001) // =======================================================
(PID.TID 0000.0001) // End MONITOR dynamic field statistics
(PID.TID 0000.0001) // =======================================================
(PID.TID 0000.0001) // =======================================================
(PID.TID 0000.0001) // Begin OBCS MONITOR field statistics
(PID.TID 0000.0001) // =======================================================
(PID.TID 0000.0001) %MON obc_N_vVel_max               =   9.5658708272091E-08
(PID.TID 0000.0001) %MON obc_N_vVel_min               =   9.5658708272089E-08
(PID.TID 0000.0001) %MON obc_N_vVel_mean              =   9.5658708272089E-08
(PID.TID 0000.0001) %MON obc_N_vVel_sd                =   1.7359287594669E-14
(PID.TID 0000.0001) %MON obc_N_vVel_Int               =   6.3134747459579E+00
(PID.TID 0000.0001) // =======================================================
(PID.TID 0000.0001) // End OBCS MONITOR field statistics
(PID.TID 0000.0001) // =======================================================
 cg2d: Sum(rhs),rhsMax =   3.00797475823365E+00  4.53042540640527E+02
(PID.TID 0000.0001)      cg2d_init_res =   4.22665449780862E-06
(PID.TID 0000.0001)      cg2d_iters(min,last) =      -1      76
(PID.TID 0000.0001)      cg2d_last_res =   9.15545989083874E-12
(PID.TID 0000.0001) // =======================================================
(PID.TID 0000.0001) // Begin MONITOR dynamic field statistics
(PID.TID 0000.0001) // =======================================================
(PID.TID 0000.0001) %MON time_tsnumber                =                  1263
(PID.TID 0000.0001) %MON time_secondsf                =   1.2630000000000E+05
(PID.TID 0000.0001) %MON dynstat_eta_max              =   5.7989647632706E+00
(PID.TID 0000.0001) %MON dynstat_eta_min              =  -1.4169672521828E+01
(PID.TID 0000.0001) %MON dynstat_eta_mean             =  -2.5235935678755E+00
(PID.TID 0000.0001) %MON dynstat_eta_sd               =   4.9409393454595E+00
(PID.TID 0000.0001) %MON dynstat_eta_del2             =   1.9058911494981E-01
(PID.TID 0000.0001) %MON dynstat_uvel_max             =   8.4860547630505E-03
(PID.TID 0000.0001) %MON dynstat_uvel_min             =  -3.8865892287131E-02
(PID.TID 0000.0001) %MON dynstat_uvel_mean            =   2.8035486069823E-09
(PID.TID 0000.0001) %MON dynstat_uvel_sd              =   1.0840620977490E-03
(PID.TID 0000.0001) %MON dynstat_uvel_del2            =   1.6631476357283E-06
(PID.TID 0000.0001) %MON dynstat_vvel_max             =   2.5785978938254E-02
(PID.TID 0000.0001) %MON dynstat_vvel_min             =  -1.0159768381891E-02
(PID.TID 0000.0001) %MON dynstat_vvel_mean            =   1.3732398476596E-07
(PID.TID 0000.0001) %MON dynstat_vvel_sd              =   5.0454644981240E-04
(PID.TID 0000.0001) %MON dynstat_vvel_del2            =   1.3428635519469E-06
(PID.TID 0000.0001) %MON dynstat_wvel_max             =   1.5618889153949E-03
(PID.TID 0000.0001) %MON dynstat_wvel_min             =  -1.9669846240924E-03
(PID.TID 0000.0001) %MON dynstat_wvel_mean            =   3.4308519807768E-10
(PID.TID 0000.0001) %MON dynstat_wvel_sd              =   2.5601617626657E-05
(PID.TID 0000.0001) %MON dynstat_wvel_del2            =   1.0336727022513E-07
(PID.TID 0000.0001) %MON dynstat_theta_max            =   1.2000000000000E+00
(PID.TID 0000.0001) %MON dynstat_theta_min            =  -1.0000000000000E+00
(PID.TID 0000.0001) %MON dynstat_theta_mean           =   5.6504934998226E-01
(PID.TID 0000.0001) %MON dynstat_theta_sd             =   8.4890345532613E-01
(PID.TID 0000.0001) %MON dynstat_theta_del2           =   3.7365349760686E-06
(PID.TID 0000.0001) %MON dynstat_salt_max             =   3.4700000000000E+01
(PID.TID 0000.0001) %MON dynstat_salt_min             =   3.4000000000000E+01
(PID.TID 0000.0001) %MON dynstat_salt_mean            =   3.4497933787296E+01
(PID.TID 0000.0001) %MON dynstat_salt_sd              =   2.7009906413814E-01
(PID.TID 0000.0001) %MON dynstat_salt_del2            =   1.4790330382815E-06
(PID.TID 0000.0001) %MON advcfl_uvel_max              =   3.8865892287131E-03
(PID.TID 0000.0001) %MON advcfl_vvel_max              =   2.5785978938254E-03
(PID.TID 0000.0001) %MON advcfl_wvel_max              =   9.8349231204618E-03
(PID.TID 0000.0001) %MON advcfl_W_hf_max              =   9.8349231204618E-03
(PID.TID 0000.0001) %MON pe_b_mean                    =  -6.8182180557016E-01
(PID.TID 0000.0001) %MON ke_max                       =   6.4900042687278E-04
(PID.TID 0000.0001) %MON ke_mean                      =   7.0382924002301E-07
(PID.TID 0000.0001) %MON ke_vol                       =   4.6183098100556E+12
(PID.TID 0000.0001) // =======================================================
(PID.TID 0000.0001) // End MONITOR dynamic field statistics
(PID.TID 0000.0001) // =======================================================
(PID.TID 0000.0001) // =======================================================
(PID.TID 0000.0001) // Begin OBCS MONITOR field statistics
(PID.TID 0000.0001) // =======================================================
(PID.TID 0000.0001) %MON obc_N_vVel_max               =   9.6570566981624E-08
(PID.TID 0000.0001) %MON obc_N_vVel_min               =   9.6570566981622E-08
(PID.TID 0000.0001) %MON obc_N_vVel_mean              =   9.6570566981624E-08
(PID.TID 0000.0001) %MON obc_N_vVel_sd                =  -1.1359597035183E-28
(PID.TID 0000.0001) %MON obc_N_vVel_Int               =   6.3736574207872E+00
(PID.TID 0000.0001) // =======================================================
(PID.TID 0000.0001) // End OBCS MONITOR field statistics
(PID.TID 0000.0001) // =======================================================
 cg2d: Sum(rhs),rhsMax =   3.00796596514101E+00  4.53042528152114E+02
(PID.TID 0000.0001)      cg2d_init_res =   4.23419234450994E-06
(PID.TID 0000.0001)      cg2d_iters(min,last) =      -1      76
(PID.TID 0000.0001)      cg2d_last_res =   9.17493506184946E-12
(PID.TID 0000.0001) // =======================================================
(PID.TID 0000.0001) // Begin MONITOR dynamic field statistics
(PID.TID 0000.0001) // =======================================================
(PID.TID 0000.0001) %MON time_tsnumber                =                  1264
(PID.TID 0000.0001) %MON time_secondsf                =   1.2640000000000E+05
(PID.TID 0000.0001) %MON dynstat_eta_max              =   5.7989673733214E+00
(PID.TID 0000.0001) %MON dynstat_eta_min              =  -1.4169656750167E+01
(PID.TID 0000.0001) %MON dynstat_eta_mean             =  -2.5235861211907E+00
(PID.TID 0000.0001) %MON dynstat_eta_sd               =   4.9409372111526E+00
(PID.TID 0000.0001) %MON dynstat_eta_del2             =   1.9058913779431E-01
(PID.TID 0000.0001) %MON dynstat_uvel_max             =   8.5057739538810E-03
(PID.TID 0000.0001) %MON dynstat_uvel_min             =  -3.8950994041340E-02
(PID.TID 0000.0001) %MON dynstat_uvel_mean            =   2.8801079873117E-09
(PID.TID 0000.0001) %MON dynstat_uvel_sd              =   1.0866218561864E-03
(PID.TID 0000.0001) %MON dynstat_uvel_del2            =   1.6671472295570E-06
(PID.TID 0000.0001) %MON dynstat_vvel_max             =   2.5827457755287E-02
(PID.TID 0000.0001) %MON dynstat_vvel_min             =  -1.0190412601524E-02
(PID.TID 0000.0001) %MON dynstat_vvel_mean            =   1.3573030249660E-07
(PID.TID 0000.0001) %MON dynstat_vvel_sd              =   5.0555029928273E-04
(PID.TID 0000.0001) %MON dynstat_vvel_del2            =   1.3455047893917E-06
(PID.TID 0000.0001) %MON dynstat_wvel_max             =   1.5650364294277E-03
(PID.TID 0000.0001) %MON dynstat_wvel_min             =  -1.9717245469993E-03
(PID.TID 0000.0001) %MON dynstat_wvel_mean            =   3.3280660010668E-10
(PID.TID 0000.0001) %MON dynstat_wvel_sd              =   2.5652352177594E-05
(PID.TID 0000.0001) %MON dynstat_wvel_del2            =   1.0354282922305E-07
(PID.TID 0000.0001) %MON dynstat_theta_max            =   1.2000000000000E+00
(PID.TID 0000.0001) %MON dynstat_theta_min            =  -1.0000000000000E+00
(PID.TID 0000.0001) %MON dynstat_theta_mean           =   5.6504851168691E-01
(PID.TID 0000.0001) %MON dynstat_theta_sd             =   8.4890307701235E-01
(PID.TID 0000.0001) %MON dynstat_theta_del2           =   3.7436694928157E-06
(PID.TID 0000.0001) %MON dynstat_salt_max             =   3.4700000000000E+01
(PID.TID 0000.0001) %MON dynstat_salt_min             =   3.4000000000000E+01
(PID.TID 0000.0001) %MON dynstat_salt_mean            =   3.4497933452349E+01
(PID.TID 0000.0001) %MON dynstat_salt_sd              =   2.7009892123101E-01
(PID.TID 0000.0001) %MON dynstat_salt_del2            =   1.4818643680629E-06
(PID.TID 0000.0001) %MON advcfl_uvel_max              =   3.8950994041340E-03
(PID.TID 0000.0001) %MON advcfl_vvel_max              =   2.5827457755287E-03
(PID.TID 0000.0001) %MON advcfl_wvel_max              =   9.8586227349965E-03
(PID.TID 0000.0001) %MON advcfl_W_hf_max              =   9.8586227349965E-03
(PID.TID 0000.0001) %MON pe_b_mean                    =  -6.8181956939208E-01
(PID.TID 0000.0001) %MON ke_max                       =   6.5221211105908E-04
(PID.TID 0000.0001) %MON ke_mean                      =   7.0706220498993E-07
(PID.TID 0000.0001) %MON ke_vol                       =   4.6183098542068E+12
(PID.TID 0000.0001) // =======================================================
(PID.TID 0000.0001) // End MONITOR dynamic field statistics
(PID.TID 0000.0001) // =======================================================
(PID.TID 0000.0001) // =======================================================
(PID.TID 0000.0001) // Begin OBCS MONITOR field statistics
(PID.TID 0000.0001) // =======================================================
(PID.TID 0000.0001) %MON obc_N_vVel_max               =   9.6008028495746E-08
(PID.TID 0000.0001) %MON obc_N_vVel_min               =   9.6008028495744E-08
(PID.TID 0000.0001) %MON obc_N_vVel_mean              =   9.6008028495744E-08
(PID.TID 0000.0001) %MON obc_N_vVel_sd                =   1.2685725232129E-14
(PID.TID 0000.0001) %MON obc_N_vVel_Int               =   6.3365298807191E+00
(PID.TID 0000.0001) // =======================================================
(PID.TID 0000.0001) // End OBCS MONITOR field statistics
(PID.TID 0000.0001) // =======================================================
 cg2d: Sum(rhs),rhsMax =   3.00795715640969E+00  4.53042515246058E+02
(PID.TID 0000.0001)      cg2d_init_res =   4.24187738857686E-06
(PID.TID 0000.0001)      cg2d_iters(min,last) =      -1      76
(PID.TID 0000.0001)      cg2d_last_res =   9.19477612425983E-12
(PID.TID 0000.0001) // =======================================================
(PID.TID 0000.0001) // Begin MONITOR dynamic field statistics
(PID.TID 0000.0001) // =======================================================
(PID.TID 0000.0001) %MON time_tsnumber                =                  1265
(PID.TID 0000.0001) %MON time_secondsf                =   1.2650000000000E+05
(PID.TID 0000.0001) %MON dynstat_eta_max              =   5.7989699894937E+00
(PID.TID 0000.0001) %MON dynstat_eta_min              =  -1.4169640942706E+01
(PID.TID 0000.0001) %MON dynstat_eta_mean             =  -2.5235786590597E+00
(PID.TID 0000.0001) %MON dynstat_eta_sd               =   4.9409350711045E+00
(PID.TID 0000.0001) %MON dynstat_eta_del2             =   1.9058916067643E-01
(PID.TID 0000.0001) %MON dynstat_uvel_max             =   8.5255251373040E-03
(PID.TID 0000.0001) %MON dynstat_uvel_min             =  -3.9036184778547E-02
(PID.TID 0000.0001) %MON dynstat_uvel_mean            =   2.9547894027480E-09
(PID.TID 0000.0001) %MON dynstat_uvel_sd              =   1.0891868054144E-03
(PID.TID 0000.0001) %MON dynstat_uvel_del2            =   1.6711557157942E-06
(PID.TID 0000.0001) %MON dynstat_vvel_max             =   2.5868948990285E-02
(PID.TID 0000.0001) %MON dynstat_vvel_min             =  -1.0221130954818E-02
(PID.TID 0000.0001) %MON dynstat_vvel_mean            =   1.3267472050833E-07
(PID.TID 0000.0001) %MON dynstat_vvel_sd              =   5.0655634530066E-04
(PID.TID 0000.0001) %MON dynstat_vvel_del2            =   1.3481511411939E-06
(PID.TID 0000.0001) %MON dynstat_wvel_max             =   1.5681869891374E-03
(PID.TID 0000.0001) %MON dynstat_wvel_min             =  -1.9764673645757E-03
(PID.TID 0000.0001) %MON dynstat_wvel_mean            =   3.2323032835494E-10
(PID.TID 0000.0001) %MON dynstat_wvel_sd              =   2.5704352810531E-05
(PID.TID 0000.0001) %MON dynstat_wvel_del2            =   1.0372417912945E-07
(PID.TID 0000.0001) %MON dynstat_theta_max            =   1.2000000000000E+00
(PID.TID 0000.0001) %MON dynstat_theta_min            =  -1.0000000000000E+00
(PID.TID 0000.0001) %MON dynstat_theta_mean           =   5.6504767193506E-01
(PID.TID 0000.0001) %MON dynstat_theta_sd             =   8.4890269800137E-01
(PID.TID 0000.0001) %MON dynstat_theta_del2           =   3.7508121141236E-06
(PID.TID 0000.0001) %MON dynstat_salt_max             =   3.4700000000000E+01
(PID.TID 0000.0001) %MON dynstat_salt_min             =   3.4000000000000E+01
(PID.TID 0000.0001) %MON dynstat_salt_mean            =   3.4497933116818E+01
(PID.TID 0000.0001) %MON dynstat_salt_sd              =   2.7009877805997E-01
(PID.TID 0000.0001) %MON dynstat_salt_del2            =   1.4846991704590E-06
(PID.TID 0000.0001) %MON advcfl_uvel_max              =   3.9036184778547E-03
(PID.TID 0000.0001) %MON advcfl_vvel_max              =   2.5868948990285E-03
(PID.TID 0000.0001) %MON advcfl_wvel_max              =   9.8823368228786E-03
(PID.TID 0000.0001) %MON advcfl_W_hf_max              =   9.8823368228786E-03
(PID.TID 0000.0001) %MON pe_b_mean                    =  -6.8181732838719E-01
(PID.TID 0000.0001) %MON ke_max                       =   6.5543720169503E-04
(PID.TID 0000.0001) %MON ke_mean                      =   7.1030926672714E-07
(PID.TID 0000.0001) %MON ke_vol                       =   4.6183098984401E+12
(PID.TID 0000.0001) // =======================================================
(PID.TID 0000.0001) // End MONITOR dynamic field statistics
(PID.TID 0000.0001) // =======================================================
(PID.TID 0000.0001) // =======================================================
(PID.TID 0000.0001) // Begin OBCS MONITOR field statistics
(PID.TID 0000.0001) // =======================================================
(PID.TID 0000.0001) %MON obc_N_vVel_max               =   9.4003688917126E-08
(PID.TID 0000.0001) %MON obc_N_vVel_min               =   9.4003688917123E-08
(PID.TID 0000.0001) %MON obc_N_vVel_mean              =   9.4003688917123E-08
(PID.TID 0000.0001) %MON obc_N_vVel_sd                =   2.5925074565916E-14
(PID.TID 0000.0001) %MON obc_N_vVel_Int               =   6.2042434685301E+00
(PID.TID 0000.0001) // =======================================================
(PID.TID 0000.0001) // End OBCS MONITOR field statistics
(PID.TID 0000.0001) // =======================================================
 cg2d: Sum(rhs),rhsMax =   3.00794833042940E+00  4.53042501884263E+02
(PID.TID 0000.0001)      cg2d_init_res =   4.24971043709277E-06
(PID.TID 0000.0001)      cg2d_iters(min,last) =      -1      76
(PID.TID 0000.0001)      cg2d_last_res =   9.21498276423639E-12
(PID.TID 0000.0001) // =======================================================
(PID.TID 0000.0001) // Begin MONITOR dynamic field statistics
(PID.TID 0000.0001) // =======================================================
(PID.TID 0000.0001) %MON time_tsnumber                =                  1266
(PID.TID 0000.0001) %MON time_secondsf                =   1.2660000000000E+05
(PID.TID 0000.0001) %MON dynstat_eta_max              =   5.7989726142384E+00
(PID.TID 0000.0001) %MON dynstat_eta_min              =  -1.4169625096563E+01
(PID.TID 0000.0001) %MON dynstat_eta_mean             =  -2.5235711799191E+00
(PID.TID 0000.0001) %MON dynstat_eta_sd               =   4.9409329248652E+00
(PID.TID 0000.0001) %MON dynstat_eta_del2             =   1.9058918359533E-01
(PID.TID 0000.0001) %MON dynstat_uvel_max             =   8.5453082429625E-03
(PID.TID 0000.0001) %MON dynstat_uvel_min             =  -3.9121464524840E-02
(PID.TID 0000.0001) %MON dynstat_uvel_mean            =   3.0265329446571E-09
(PID.TID 0000.0001) %MON dynstat_uvel_sd              =   1.0917569537103E-03
(PID.TID 0000.0001) %MON dynstat_uvel_del2            =   1.6751731119032E-06
(PID.TID 0000.0001) %MON dynstat_vvel_max             =   2.5910452561022E-02
(PID.TID 0000.0001) %MON dynstat_vvel_min             =  -1.0251923362953E-02
(PID.TID 0000.0001) %MON dynstat_vvel_mean            =   1.2823309838992E-07
(PID.TID 0000.0001) %MON dynstat_vvel_sd              =   5.0756462010188E-04
(PID.TID 0000.0001) %MON dynstat_vvel_del2            =   1.3508027855567E-06
(PID.TID 0000.0001) %MON dynstat_wvel_max             =   1.5713405895317E-03
(PID.TID 0000.0001) %MON dynstat_wvel_min             =  -1.9812130147739E-03
(PID.TID 0000.0001) %MON dynstat_wvel_mean            =   3.1451897625852E-10
(PID.TID 0000.0001) %MON dynstat_wvel_sd              =   2.5757732827720E-05
(PID.TID 0000.0001) %MON dynstat_wvel_del2            =   1.0391204283424E-07
(PID.TID 0000.0001) %MON dynstat_theta_max            =   1.2000000000000E+00
(PID.TID 0000.0001) %MON dynstat_theta_min            =  -1.0000000000000E+00
(PID.TID 0000.0001) %MON dynstat_theta_mean           =   5.6504683072394E-01
(PID.TID 0000.0001) %MON dynstat_theta_sd             =   8.4890231829078E-01
(PID.TID 0000.0001) %MON dynstat_theta_del2           =   3.7579626855912E-06
(PID.TID 0000.0001) %MON dynstat_salt_max             =   3.4700000000000E+01
(PID.TID 0000.0001) %MON dynstat_salt_min             =   3.4000000000000E+01
(PID.TID 0000.0001) %MON dynstat_salt_mean            =   3.4497932780702E+01
(PID.TID 0000.0001) %MON dynstat_salt_sd              =   2.7009863462441E-01
(PID.TID 0000.0001) %MON dynstat_salt_del2            =   1.4875374130445E-06
(PID.TID 0000.0001) %MON advcfl_uvel_max              =   3.9121464524840E-03
(PID.TID 0000.0001) %MON advcfl_vvel_max              =   2.5910452561022E-03
(PID.TID 0000.0001) %MON advcfl_wvel_max              =   9.9060650738695E-03
(PID.TID 0000.0001) %MON advcfl_W_hf_max              =   9.9060650738695E-03
(PID.TID 0000.0001) %MON pe_b_mean                    =  -6.8181508225628E-01
(PID.TID 0000.0001) %MON ke_max                       =   6.5867574474769E-04
(PID.TID 0000.0001) %MON ke_mean                      =   7.1357049630673E-07
(PID.TID 0000.0001) %MON ke_vol                       =   4.6183099427652E+12
(PID.TID 0000.0001) // =======================================================
(PID.TID 0000.0001) // End MONITOR dynamic field statistics
(PID.TID 0000.0001) // =======================================================
(PID.TID 0000.0001) // =======================================================
(PID.TID 0000.0001) // Begin OBCS MONITOR field statistics
(PID.TID 0000.0001) // =======================================================
(PID.TID 0000.0001) %MON obc_N_vVel_max               =   9.0614440987095E-08
(PID.TID 0000.0001) %MON obc_N_vVel_min               =   9.0614440987092E-08
(PID.TID 0000.0001) %MON obc_N_vVel_mean              =   9.0614440987095E-08
(PID.TID 0000.0001) %MON obc_N_vVel_sd                =  -4.6385021226995E-28
(PID.TID 0000.0001) %MON obc_N_vVel_Int               =   5.9805531051483E+00
(PID.TID 0000.0001) // =======================================================
(PID.TID 0000.0001) // End OBCS MONITOR field statistics
(PID.TID 0000.0001) // =======================================================
 cg2d: Sum(rhs),rhsMax =   3.00793948564781E+00  4.53042488035957E+02
(PID.TID 0000.0001)      cg2d_init_res =   4.25768672735101E-06
(PID.TID 0000.0001)      cg2d_iters(min,last) =      -1      76
(PID.TID 0000.0001)      cg2d_last_res =   9.23555660172930E-12
(PID.TID 0000.0001) // =======================================================
(PID.TID 0000.0001) // Begin MONITOR dynamic field statistics
(PID.TID 0000.0001) // =======================================================
(PID.TID 0000.0001) %MON time_tsnumber                =                  1267
(PID.TID 0000.0001) %MON time_secondsf                =   1.2670000000000E+05
(PID.TID 0000.0001) %MON dynstat_eta_max              =   5.7989752498054E+00
(PID.TID 0000.0001) %MON dynstat_eta_min              =  -1.4169609209088E+01
(PID.TID 0000.0001) %MON dynstat_eta_mean             =  -2.5235636822953E+00
(PID.TID 0000.0001) %MON dynstat_eta_sd               =   4.9409307720349E+00
(PID.TID 0000.0001) %MON dynstat_eta_del2             =   1.9058920655036E-01
(PID.TID 0000.0001) %MON dynstat_uvel_max             =   8.5651231990065E-03
(PID.TID 0000.0001) %MON dynstat_uvel_min             =  -3.9206833308481E-02
(PID.TID 0000.0001) %MON dynstat_uvel_mean            =   3.0943381113782E-09
(PID.TID 0000.0001) %MON dynstat_uvel_sd              =   1.0943323093101E-03
(PID.TID 0000.0001) %MON dynstat_uvel_del2            =   1.6791994356229E-06
(PID.TID 0000.0001) %MON dynstat_vvel_max             =   2.5951968388253E-02
(PID.TID 0000.0001) %MON dynstat_vvel_min             =  -1.0282789742671E-02
(PID.TID 0000.0001) %MON dynstat_vvel_mean            =   1.2250432664683E-07
(PID.TID 0000.0001) %MON dynstat_vvel_sd              =   5.0857513657205E-04
(PID.TID 0000.0001) %MON dynstat_vvel_del2            =   1.3534597767101E-06
(PID.TID 0000.0001) %MON dynstat_wvel_max             =   1.5744972255047E-03
(PID.TID 0000.0001) %MON dynstat_wvel_min             =  -1.9859614351802E-03
(PID.TID 0000.0001) %MON dynstat_wvel_mean            =   3.0681917879118E-10
(PID.TID 0000.0001) %MON dynstat_wvel_sd              =   2.5812515628063E-05
(PID.TID 0000.0001) %MON dynstat_wvel_del2            =   1.0410670557462E-07
(PID.TID 0000.0001) %MON dynstat_theta_max            =   1.2000000000000E+00
(PID.TID 0000.0001) %MON dynstat_theta_min            =  -1.0000000000000E+00
(PID.TID 0000.0001) %MON dynstat_theta_mean           =   5.6504598805090E-01
(PID.TID 0000.0001) %MON dynstat_theta_sd             =   8.4890193787720E-01
(PID.TID 0000.0001) %MON dynstat_theta_del2           =   3.7651209828301E-06
(PID.TID 0000.0001) %MON dynstat_salt_max             =   3.4700000000000E+01
(PID.TID 0000.0001) %MON dynstat_salt_min             =   3.4000000000000E+01
(PID.TID 0000.0001) %MON dynstat_salt_mean            =   3.4497932444001E+01
(PID.TID 0000.0001) %MON dynstat_salt_sd              =   2.7009849092307E-01
(PID.TID 0000.0001) %MON dynstat_salt_del2            =   1.4903790976052E-06
(PID.TID 0000.0001) %MON advcfl_uvel_max              =   3.9206833308481E-03
(PID.TID 0000.0001) %MON advcfl_vvel_max              =   2.5951968388253E-03
(PID.TID 0000.0001) %MON advcfl_wvel_max              =   9.9298071759009E-03
(PID.TID 0000.0001) %MON advcfl_W_hf_max              =   9.9298071759009E-03
(PID.TID 0000.0001) %MON pe_b_mean                    =  -6.8181283072275E-01
(PID.TID 0000.0001) %MON ke_max                       =   6.6192778629988E-04
(PID.TID 0000.0001) %MON ke_mean                      =   7.1684595523076E-07
(PID.TID 0000.0001) %MON ke_vol                       =   4.6183099871913E+12
(PID.TID 0000.0001) // =======================================================
(PID.TID 0000.0001) // End MONITOR dynamic field statistics
(PID.TID 0000.0001) // =======================================================
(PID.TID 0000.0001) // =======================================================
(PID.TID 0000.0001) // Begin OBCS MONITOR field statistics
(PID.TID 0000.0001) // =======================================================
(PID.TID 0000.0001) %MON obc_N_vVel_max               =   8.5920326021880E-08
(PID.TID 0000.0001) %MON obc_N_vVel_min               =   8.5920326021877E-08
(PID.TID 0000.0001) %MON obc_N_vVel_mean              =   8.5920326021880E-08
(PID.TID 0000.0001) %MON obc_N_vVel_sd                =  -7.8255001797924E-28
(PID.TID 0000.0001) %MON obc_N_vVel_Int               =   5.6707415174441E+00
(PID.TID 0000.0001) // =======================================================
(PID.TID 0000.0001) // End OBCS MONITOR field statistics
(PID.TID 0000.0001) // =======================================================
 cg2d: Sum(rhs),rhsMax =   3.00793062059661E+00  4.53042473678091E+02
(PID.TID 0000.0001)      cg2d_init_res =   4.26579812418619E-06
(PID.TID 0000.0001)      cg2d_iters(min,last) =      -1      76
(PID.TID 0000.0001)      cg2d_last_res =   9.25648798131713E-12
(PID.TID 0000.0001) // =======================================================
(PID.TID 0000.0001) // Begin MONITOR dynamic field statistics
(PID.TID 0000.0001) // =======================================================
(PID.TID 0000.0001) %MON time_tsnumber                =                  1268
(PID.TID 0000.0001) %MON time_secondsf                =   1.2680000000000E+05
(PID.TID 0000.0001) %MON dynstat_eta_max              =   5.7989778982377E+00
(PID.TID 0000.0001) %MON dynstat_eta_min              =  -1.4169593277862E+01
(PID.TID 0000.0001) %MON dynstat_eta_mean             =  -2.5235561648281E+00
(PID.TID 0000.0001) %MON dynstat_eta_sd               =   4.9409286122697E+00
(PID.TID 0000.0001) %MON dynstat_eta_del2             =   1.9058922954100E-01
(PID.TID 0000.0001) %MON dynstat_uvel_max             =   8.5849699321452E-03
(PID.TID 0000.0001) %MON dynstat_uvel_min             =  -3.9292291159573E-02
(PID.TID 0000.0001) %MON dynstat_uvel_mean            =   3.1572795341831E-09
(PID.TID 0000.0001) %MON dynstat_uvel_sd              =   1.0969128804159E-03
(PID.TID 0000.0001) %MON dynstat_uvel_del2            =   1.6832347058410E-06
(PID.TID 0000.0001) %MON dynstat_vvel_max             =   2.5993496395823E-02
(PID.TID 0000.0001) %MON dynstat_vvel_min             =  -1.0313730006414E-02
(PID.TID 0000.0001) %MON dynstat_vvel_mean            =   1.1560844872424E-07
(PID.TID 0000.0001) %MON dynstat_vvel_sd              =   5.0958788805922E-04
(PID.TID 0000.0001) %MON dynstat_vvel_del2            =   1.3561220472128E-06
(PID.TID 0000.0001) %MON dynstat_wvel_max             =   1.5776568918296E-03
(PID.TID 0000.0001) %MON dynstat_wvel_min             =  -1.9907125630705E-03
(PID.TID 0000.0001) %MON dynstat_wvel_mean            =   3.0025913532870E-10
(PID.TID 0000.0001) %MON dynstat_wvel_sd              =   2.5868635370966E-05
(PID.TID 0000.0001) %MON dynstat_wvel_del2            =   1.0430800747302E-07
(PID.TID 0000.0001) %MON dynstat_theta_max            =   1.2000000000000E+00
(PID.TID 0000.0001) %MON dynstat_theta_min            =  -1.0000000000000E+00
(PID.TID 0000.0001) %MON dynstat_theta_mean           =   5.6504514391337E-01
(PID.TID 0000.0001) %MON dynstat_theta_sd             =   8.4890155675529E-01
(PID.TID 0000.0001) %MON dynstat_theta_del2           =   3.7722869068316E-06
(PID.TID 0000.0001) %MON dynstat_salt_max             =   3.4700000000000E+01
(PID.TID 0000.0001) %MON dynstat_salt_min             =   3.4000000000000E+01
(PID.TID 0000.0001) %MON dynstat_salt_mean            =   3.4497932106712E+01
(PID.TID 0000.0001) %MON dynstat_salt_sd              =   2.7009834695457E-01
(PID.TID 0000.0001) %MON dynstat_salt_del2            =   1.4932240037170E-06
(PID.TID 0000.0001) %MON advcfl_uvel_max              =   3.9292291159573E-03
(PID.TID 0000.0001) %MON advcfl_vvel_max              =   2.5993496395823E-03
(PID.TID 0000.0001) %MON advcfl_wvel_max              =   9.9535628153526E-03
(PID.TID 0000.0001) %MON advcfl_W_hf_max              =   9.9535628153526E-03
(PID.TID 0000.0001) %MON pe_b_mean                    =  -6.8181057353712E-01
(PID.TID 0000.0001) %MON ke_max                       =   6.6519337254606E-04
(PID.TID 0000.0001) %MON ke_mean                      =   7.2013569524414E-07
(PID.TID 0000.0001) %MON ke_vol                       =   4.6183100317272E+12
(PID.TID 0000.0001) // =======================================================
(PID.TID 0000.0001) // End MONITOR dynamic field statistics
(PID.TID 0000.0001) // =======================================================
(PID.TID 0000.0001) // =======================================================
(PID.TID 0000.0001) // Begin OBCS MONITOR field statistics
(PID.TID 0000.0001) // =======================================================
(PID.TID 0000.0001) %MON obc_N_vVel_max               =   8.0022982210890E-08
(PID.TID 0000.0001) %MON obc_N_vVel_min               =   8.0022982210889E-08
(PID.TID 0000.0001) %MON obc_N_vVel_mean              =   8.0022982210889E-08
(PID.TID 0000.0001) %MON obc_N_vVel_sd                =  -7.0997481469891E-29
(PID.TID 0000.0001) %MON obc_N_vVel_Int               =   5.2815168259187E+00
(PID.TID 0000.0001) // =======================================================
(PID.TID 0000.0001) // End OBCS MONITOR field statistics
(PID.TID 0000.0001) // =======================================================
 cg2d: Sum(rhs),rhsMax =   3.00792173391483E+00  4.53042458795629E+02
(PID.TID 0000.0001)      cg2d_init_res =   4.27399553886818E-06
(PID.TID 0000.0001)      cg2d_iters(min,last) =      -1      76
(PID.TID 0000.0001)      cg2d_last_res =   9.27767430305304E-12
(PID.TID 0000.0001) // =======================================================
(PID.TID 0000.0001) // Begin MONITOR dynamic field statistics
(PID.TID 0000.0001) // =======================================================
(PID.TID 0000.0001) %MON time_tsnumber                =                  1269
(PID.TID 0000.0001) %MON time_secondsf                =   1.2690000000000E+05
(PID.TID 0000.0001) %MON dynstat_eta_max              =   5.7989805613376E+00
(PID.TID 0000.0001) %MON dynstat_eta_min              =  -1.4169577300768E+01
(PID.TID 0000.0001) %MON dynstat_eta_mean             =  -2.5235486262918E+00
(PID.TID 0000.0001) %MON dynstat_eta_sd               =   4.9409264452865E+00
(PID.TID 0000.0001) %MON dynstat_eta_del2             =   1.9058925256653E-01
(PID.TID 0000.0001) %MON dynstat_uvel_max             =   8.6048483677050E-03
(PID.TID 0000.0001) %MON dynstat_uvel_min             =  -3.9377838110044E-02
(PID.TID 0000.0001) %MON dynstat_uvel_mean            =   3.2145189753298E-09
(PID.TID 0000.0001) %MON dynstat_uvel_sd              =   1.0994986750182E-03
(PID.TID 0000.0001) %MON dynstat_uvel_del2            =   1.6872789318548E-06
(PID.TID 0000.0001) %MON dynstat_vvel_max             =   2.6035036510176E-02
(PID.TID 0000.0001) %MON dynstat_vvel_min             =  -1.0344744062913E-02
(PID.TID 0000.0001) %MON dynstat_vvel_mean            =   1.0768444181036E-07
(PID.TID 0000.0001) %MON dynstat_vvel_sd              =   5.1060284955489E-04
(PID.TID 0000.0001) %MON dynstat_vvel_del2            =   1.3587894141962E-06
(PID.TID 0000.0001) %MON dynstat_wvel_max             =   1.5808195831842E-03
(PID.TID 0000.0001) %MON dynstat_wvel_min             =  -1.9954663353510E-03
(PID.TID 0000.0001) %MON dynstat_wvel_mean            =   2.9494697047662E-10
(PID.TID 0000.0001) %MON dynstat_wvel_sd              =   2.5925943708360E-05
(PID.TID 0000.0001) %MON dynstat_wvel_del2            =   1.0451536597777E-07
(PID.TID 0000.0001) %MON dynstat_theta_max            =   1.2000000000000E+00
(PID.TID 0000.0001) %MON dynstat_theta_min            =  -1.0000000000000E+00
(PID.TID 0000.0001) %MON dynstat_theta_mean           =   5.6504429830886E-01
(PID.TID 0000.0001) %MON dynstat_theta_sd             =   8.4890117492069E-01
(PID.TID 0000.0001) %MON dynstat_theta_del2           =   3.7794608343013E-06
(PID.TID 0000.0001) %MON dynstat_salt_max             =   3.4700000000000E+01
(PID.TID 0000.0001) %MON dynstat_salt_min             =   3.4000000000000E+01
(PID.TID 0000.0001) %MON dynstat_salt_mean            =   3.4497931768835E+01
(PID.TID 0000.0001) %MON dynstat_salt_sd              =   2.7009820271724E-01
(PID.TID 0000.0001) %MON dynstat_salt_del2            =   1.4960723167565E-06
(PID.TID 0000.0001) %MON advcfl_uvel_max              =   3.9377838110044E-03
(PID.TID 0000.0001) %MON advcfl_vvel_max              =   2.6035036510176E-03
(PID.TID 0000.0001) %MON advcfl_wvel_max              =   9.9773316767549E-03
(PID.TID 0000.0001) %MON advcfl_W_hf_max              =   9.9773316767549E-03
(PID.TID 0000.0001) %MON pe_b_mean                    =  -6.8180831048071E-01
(PID.TID 0000.0001) %MON ke_max                       =   6.6847254978618E-04
(PID.TID 0000.0001) %MON ke_mean                      =   7.2343975864580E-07
(PID.TID 0000.0001) %MON ke_vol                       =   4.6183100763809E+12
(PID.TID 0000.0001) // =======================================================
(PID.TID 0000.0001) // End MONITOR dynamic field statistics
(PID.TID 0000.0001) // =======================================================
(PID.TID 0000.0001) // =======================================================
(PID.TID 0000.0001) // Begin OBCS MONITOR field statistics
(PID.TID 0000.0001) // =======================================================
(PID.TID 0000.0001) %MON obc_N_vVel_max               =   7.3043711756313E-08
(PID.TID 0000.0001) %MON obc_N_vVel_min               =   7.3043711756310E-08
(PID.TID 0000.0001) %MON obc_N_vVel_mean              =   7.3043711756313E-08
(PID.TID 0000.0001) %MON obc_N_vVel_sd                =  -5.3879199826595E-28
(PID.TID 0000.0001) %MON obc_N_vVel_Int               =   4.8208849759167E+00
(PID.TID 0000.0001) // =======================================================
(PID.TID 0000.0001) // End OBCS MONITOR field statistics
(PID.TID 0000.0001) // =======================================================
 cg2d: Sum(rhs),rhsMax =   3.00791282437074E+00  4.53042443381448E+02
(PID.TID 0000.0001)      cg2d_init_res =   4.28231066683447E-06
(PID.TID 0000.0001)      cg2d_iters(min,last) =      -1      76
(PID.TID 0000.0001)      cg2d_last_res =   9.29923694967867E-12
(PID.TID 0000.0001) // =======================================================
(PID.TID 0000.0001) // Begin MONITOR dynamic field statistics
(PID.TID 0000.0001) // =======================================================
(PID.TID 0000.0001) %MON time_tsnumber                =                  1270
(PID.TID 0000.0001) %MON time_secondsf                =   1.2700000000000E+05
(PID.TID 0000.0001) %MON dynstat_eta_max              =   5.7989832406123E+00
(PID.TID 0000.0001) %MON dynstat_eta_min              =  -1.4169561276011E+01
(PID.TID 0000.0001) %MON dynstat_eta_mean             =  -2.5235410656135E+00
(PID.TID 0000.0001) %MON dynstat_eta_sd               =   4.9409242708731E+00
(PID.TID 0000.0001) %MON dynstat_eta_del2             =   1.9058927562780E-01
(PID.TID 0000.0001) %MON dynstat_uvel_max             =   8.6247584297334E-03
(PID.TID 0000.0001) %MON dynstat_uvel_min             =  -3.9463474192523E-02
(PID.TID 0000.0001) %MON dynstat_uvel_mean            =   3.2653150530005E-09
(PID.TID 0000.0001) %MON dynstat_uvel_sd              =   1.1020897012383E-03
(PID.TID 0000.0001) %MON dynstat_uvel_del2            =   1.6913321365276E-06
(PID.TID 0000.0001) %MON dynstat_vvel_max             =   2.6076588659978E-02
(PID.TID 0000.0001) %MON dynstat_vvel_min             =  -1.0375831817532E-02
(PID.TID 0000.0001) %MON dynstat_vvel_mean            =   9.8887654396244E-08
(PID.TID 0000.0001) %MON dynstat_vvel_sd              =   5.1161997973229E-04
(PID.TID 0000.0001) %MON dynstat_vvel_del2            =   1.3614616038784E-06
(PID.TID 0000.0001) %MON dynstat_wvel_max             =   1.5839852941465E-03
(PID.TID 0000.0001) %MON dynstat_wvel_min             =  -2.0002226885375E-03
(PID.TID 0000.0001) %MON dynstat_wvel_mean            =   2.9096792034211E-10
(PID.TID 0000.0001) %MON dynstat_wvel_sd              =   2.5984221962765E-05
(PID.TID 0000.0001) %MON dynstat_wvel_del2            =   1.0472782585452E-07
(PID.TID 0000.0001) %MON dynstat_theta_max            =   1.2000000000000E+00
(PID.TID 0000.0001) %MON dynstat_theta_min            =  -1.0000000000000E+00
(PID.TID 0000.0001) %MON dynstat_theta_mean           =   5.6504345123473E-01
(PID.TID 0000.0001) %MON dynstat_theta_sd             =   8.4890079237364E-01
(PID.TID 0000.0001) %MON dynstat_theta_del2           =   3.7866555231506E-06
(PID.TID 0000.0001) %MON dynstat_salt_max             =   3.4700000000000E+01
(PID.TID 0000.0001) %MON dynstat_salt_min             =   3.4000000000000E+01
(PID.TID 0000.0001) %MON dynstat_salt_mean            =   3.4497931430369E+01
(PID.TID 0000.0001) %MON dynstat_salt_sd              =   2.7009805821052E-01
(PID.TID 0000.0001) %MON dynstat_salt_del2            =   1.4989242725318E-06
(PID.TID 0000.0001) %MON advcfl_uvel_max              =   3.9463474192523E-03
(PID.TID 0000.0001) %MON advcfl_vvel_max              =   2.6076588659978E-03
(PID.TID 0000.0001) %MON advcfl_wvel_max              =   1.0001113442688E-02
(PID.TID 0000.0001) %MON advcfl_W_hf_max              =   1.0001113442688E-02
(PID.TID 0000.0001) %MON pe_b_mean                    =  -6.8180604136888E-01
(PID.TID 0000.0001) %MON ke_max                       =   6.7176536439830E-04
(PID.TID 0000.0001) %MON ke_mean                      =   7.2675817960236E-07
(PID.TID 0000.0001) %MON ke_vol                       =   4.6183101211598E+12
(PID.TID 0000.0001) // =======================================================
(PID.TID 0000.0001) // End MONITOR dynamic field statistics
(PID.TID 0000.0001) // =======================================================
(PID.TID 0000.0001) // =======================================================
(PID.TID 0000.0001) // Begin OBCS MONITOR field statistics
(PID.TID 0000.0001) // =======================================================
(PID.TID 0000.0001) %MON obc_N_vVel_max               =   6.5121257700783E-08
(PID.TID 0000.0001) %MON obc_N_vVel_min               =   6.5121257700783E-08
(PID.TID 0000.0001) %MON obc_N_vVel_mean              =   6.5121257700783E-08
(PID.TID 0000.0001) %MON obc_N_vVel_sd                =  -4.1809627976714E-29
(PID.TID 0000.0001) %MON obc_N_vVel_Int               =   4.2980030082517E+00
(PID.TID 0000.0001) // =======================================================
(PID.TID 0000.0001) // End OBCS MONITOR field statistics
(PID.TID 0000.0001) // =======================================================
 cg2d: Sum(rhs),rhsMax =   3.00790389088128E+00  4.53042427436679E+02
(PID.TID 0000.0001)      cg2d_init_res =   4.29037376359133E-06
(PID.TID 0000.0001)      cg2d_iters(min,last) =      -1      76
(PID.TID 0000.0001)      cg2d_last_res =   9.32065064647566E-12
(PID.TID 0000.0001) // =======================================================
(PID.TID 0000.0001) // Begin MONITOR dynamic field statistics
(PID.TID 0000.0001) // =======================================================
(PID.TID 0000.0001) %MON time_tsnumber                =                  1271
(PID.TID 0000.0001) %MON time_secondsf                =   1.2710000000000E+05
(PID.TID 0000.0001) %MON dynstat_eta_max              =   5.7989859372786E+00
(PID.TID 0000.0001) %MON dynstat_eta_min              =  -1.4169545202133E+01
(PID.TID 0000.0001) %MON dynstat_eta_mean             =  -2.5235334818909E+00
(PID.TID 0000.0001) %MON dynstat_eta_sd               =   4.9409220888749E+00
(PID.TID 0000.0001) %MON dynstat_eta_del2             =   1.9058929872323E-01
(PID.TID 0000.0001) %MON dynstat_uvel_max             =   8.6447000573200E-03
(PID.TID 0000.0001) %MON dynstat_uvel_min             =  -3.9549199434065E-02
(PID.TID 0000.0001) %MON dynstat_uvel_mean            =   3.3089818015695E-09
(PID.TID 0000.0001) %MON dynstat_uvel_sd              =   1.1046859662267E-03
(PID.TID 0000.0001) %MON dynstat_uvel_del2            =   1.6953943158471E-06
(PID.TID 0000.0001) %MON dynstat_vvel_max             =   2.6118152775905E-02
(PID.TID 0000.0001) %MON dynstat_vvel_min             =  -1.0406993192163E-02
(PID.TID 0000.0001) %MON dynstat_vvel_mean            =   8.9387077703874E-08
(PID.TID 0000.0001) %MON dynstat_vvel_sd              =   5.1263922522822E-04
(PID.TID 0000.0001) %MON dynstat_vvel_del2            =   1.3641382653325E-06
(PID.TID 0000.0001) %MON dynstat_wvel_max             =   1.5871540192099E-03
(PID.TID 0000.0001) %MON dynstat_wvel_min             =  -2.0049815600431E-03
(PID.TID 0000.0001) %MON dynstat_wvel_mean            =   2.8838752780195E-10
(PID.TID 0000.0001) %MON dynstat_wvel_sd              =   2.6043197040008E-05
(PID.TID 0000.0001) %MON dynstat_wvel_del2            =   1.0494412427133E-07
(PID.TID 0000.0001) %MON dynstat_theta_max            =   1.2000000000000E+00
(PID.TID 0000.0001) %MON dynstat_theta_min            =  -1.0000000000000E+00
(PID.TID 0000.0001) %MON dynstat_theta_mean           =   5.6504260268843E-01
(PID.TID 0000.0001) %MON dynstat_theta_sd             =   8.4890040910988E-01
(PID.TID 0000.0001) %MON dynstat_theta_del2           =   3.7938593523325E-06
(PID.TID 0000.0001) %MON dynstat_salt_max             =   3.4700000000000E+01
(PID.TID 0000.0001) %MON dynstat_salt_min             =   3.4000000000000E+01
(PID.TID 0000.0001) %MON dynstat_salt_mean            =   3.4497931091313E+01
(PID.TID 0000.0001) %MON dynstat_salt_sd              =   2.7009791343391E-01
(PID.TID 0000.0001) %MON dynstat_salt_del2            =   1.5017799827364E-06
(PID.TID 0000.0001) %MON advcfl_uvel_max              =   3.9549199434065E-03
(PID.TID 0000.0001) %MON advcfl_vvel_max              =   2.6118152775905E-03
(PID.TID 0000.0001) %MON advcfl_wvel_max              =   1.0024907800215E-02
(PID.TID 0000.0001) %MON advcfl_W_hf_max              =   1.0024907800215E-02
(PID.TID 0000.0001) %MON pe_b_mean                    =  -6.8180376605396E-01
(PID.TID 0000.0001) %MON ke_max                       =   6.7507186294325E-04
(PID.TID 0000.0001) %MON ke_mean                      =   7.3009098506583E-07
(PID.TID 0000.0001) %MON ke_vol                       =   4.6183101660703E+12
(PID.TID 0000.0001) // =======================================================
(PID.TID 0000.0001) // End MONITOR dynamic field statistics
(PID.TID 0000.0001) // =======================================================
(PID.TID 0000.0001) // =======================================================
(PID.TID 0000.0001) // Begin OBCS MONITOR field statistics
(PID.TID 0000.0001) // =======================================================
(PID.TID 0000.0001) %MON obc_N_vVel_max               =   5.6409239528154E-08
(PID.TID 0000.0001) %MON obc_N_vVel_min               =   5.6409239528154E-08
(PID.TID 0000.0001) %MON obc_N_vVel_mean              =   5.6409239528154E-08
(PID.TID 0000.0001) %MON obc_N_vVel_sd                =  -1.3489521479279E-28
(PID.TID 0000.0001) %MON obc_N_vVel_Int               =   3.7230098088582E+00
(PID.TID 0000.0001) // =======================================================
(PID.TID 0000.0001) // End OBCS MONITOR field statistics
(PID.TID 0000.0001) // =======================================================
 cg2d: Sum(rhs),rhsMax =   3.00789493253123E+00  4.53042410970322E+02
(PID.TID 0000.0001)      cg2d_init_res =   4.29879962445834E-06
(PID.TID 0000.0001)      cg2d_iters(min,last) =      -1      76
(PID.TID 0000.0001)      cg2d_last_res =   9.34279207238670E-12
(PID.TID 0000.0001) // =======================================================
(PID.TID 0000.0001) // Begin MONITOR dynamic field statistics
(PID.TID 0000.0001) // =======================================================
(PID.TID 0000.0001) %MON time_tsnumber                =                  1272
(PID.TID 0000.0001) %MON time_secondsf                =   1.2720000000000E+05
(PID.TID 0000.0001) %MON dynstat_eta_max              =   5.7989886522381E+00
(PID.TID 0000.0001) %MON dynstat_eta_min              =  -1.4169529078053E+01
(PID.TID 0000.0001) %MON dynstat_eta_mean             =  -2.5235258744062E+00
(PID.TID 0000.0001) %MON dynstat_eta_sd               =   4.9409198992146E+00
(PID.TID 0000.0001) %MON dynstat_eta_del2             =   1.9058932185383E-01
(PID.TID 0000.0001) %MON dynstat_uvel_max             =   8.6646731836550E-03
(PID.TID 0000.0001) %MON dynstat_uvel_min             =  -3.9635013910222E-02
(PID.TID 0000.0001) %MON dynstat_uvel_mean            =   3.3451208373417E-09
(PID.TID 0000.0001) %MON dynstat_uvel_sd              =   1.1072874778415E-03
(PID.TID 0000.0001) %MON dynstat_uvel_del2            =   1.6994654870883E-06
(PID.TID 0000.0001) %MON dynstat_vvel_max             =   2.6159728790128E-02
(PID.TID 0000.0001) %MON dynstat_vvel_min             =  -1.0438228139442E-02
(PID.TID 0000.0001) %MON dynstat_vvel_mean            =   7.9362137049017E-08
(PID.TID 0000.0001) %MON dynstat_vvel_sd              =   5.1366052368431E-04
(PID.TID 0000.0001) %MON dynstat_vvel_del2            =   1.3668190048792E-06
(PID.TID 0000.0001) %MON dynstat_wvel_max             =   1.5903257527742E-03
(PID.TID 0000.0001) %MON dynstat_wvel_min             =  -2.0097428847149E-03
(PID.TID 0000.0001) %MON dynstat_wvel_mean            =   2.8723977880515E-10
(PID.TID 0000.0001) %MON dynstat_wvel_sd              =   2.6102562309680E-05
(PID.TID 0000.0001) %MON dynstat_wvel_del2            =   1.0516278740556E-07
(PID.TID 0000.0001) %MON dynstat_theta_max            =   1.2000000000000E+00
(PID.TID 0000.0001) %MON dynstat_theta_min            =  -1.0000000000000E+00
(PID.TID 0000.0001) %MON dynstat_theta_mean           =   5.6504175266751E-01
(PID.TID 0000.0001) %MON dynstat_theta_sd             =   8.4890002512658E-01
(PID.TID 0000.0001) %MON dynstat_theta_del2           =   3.8010728216212E-06
(PID.TID 0000.0001) %MON dynstat_salt_max             =   3.4700000000000E+01
(PID.TID 0000.0001) %MON dynstat_salt_min             =   3.4000000000000E+01
(PID.TID 0000.0001) %MON dynstat_salt_mean            =   3.4497930751666E+01
(PID.TID 0000.0001) %MON dynstat_salt_sd              =   2.7009776838644E-01
(PID.TID 0000.0001) %MON dynstat_salt_del2            =   1.5046395721763E-06
(PID.TID 0000.0001) %MON advcfl_uvel_max              =   3.9635013910222E-03
(PID.TID 0000.0001) %MON advcfl_vvel_max              =   2.6159728790128E-03
(PID.TID 0000.0001) %MON advcfl_wvel_max              =   1.0048714423574E-02
(PID.TID 0000.0001) %MON advcfl_W_hf_max              =   1.0048714423574E-02
(PID.TID 0000.0001) %MON pe_b_mean                    =  -6.8180148442723E-01
(PID.TID 0000.0001) %MON ke_max                       =   6.7839209294845E-04
(PID.TID 0000.0001) %MON ke_mean                      =   7.3343819808249E-07
(PID.TID 0000.0001) %MON ke_vol                       =   4.6183102111176E+12
(PID.TID 0000.0001) // =======================================================
(PID.TID 0000.0001) // End MONITOR dynamic field statistics
(PID.TID 0000.0001) // =======================================================
(PID.TID 0000.0001) // =======================================================
(PID.TID 0000.0001) // Begin OBCS MONITOR field statistics
(PID.TID 0000.0001) // =======================================================
(PID.TID 0000.0001) %MON obc_N_vVel_max               =   4.7073416720055E-08
(PID.TID 0000.0001) %MON obc_N_vVel_min               =   4.7073416720054E-08
(PID.TID 0000.0001) %MON obc_N_vVel_mean              =   4.7073416720055E-08
(PID.TID 0000.0001) %MON obc_N_vVel_sd                =  -7.2969633732944E-29
(PID.TID 0000.0001) %MON obc_N_vVel_Int               =   3.1068455035236E+00
(PID.TID 0000.0001) // =======================================================
(PID.TID 0000.0001) // End OBCS MONITOR field statistics
(PID.TID 0000.0001) // =======================================================
 cg2d: Sum(rhs),rhsMax =   3.00788594858553E+00  4.53042393999118E+02
(PID.TID 0000.0001)      cg2d_init_res =   4.30722659811017E-06
(PID.TID 0000.0001)      cg2d_iters(min,last) =      -1      76
(PID.TID 0000.0001)      cg2d_last_res =   9.36515096815528E-12
(PID.TID 0000.0001) // =======================================================
(PID.TID 0000.0001) // Begin MONITOR dynamic field statistics
(PID.TID 0000.0001) // =======================================================
(PID.TID 0000.0001) %MON time_tsnumber                =                  1273
(PID.TID 0000.0001) %MON time_secondsf                =   1.2730000000000E+05
(PID.TID 0000.0001) %MON dynstat_eta_max              =   5.7989913860501E+00
(PID.TID 0000.0001) %MON dynstat_eta_min              =  -1.4169512903060E+01
(PID.TID 0000.0001) %MON dynstat_eta_mean             =  -2.5235182426361E+00
(PID.TID 0000.0001) %MON dynstat_eta_sd               =   4.9409177018814E+00
(PID.TID 0000.0001) %MON dynstat_eta_del2             =   1.9058934501980E-01
(PID.TID 0000.0001) %MON dynstat_uvel_max             =   8.6846777266789E-03
(PID.TID 0000.0001) %MON dynstat_uvel_min             =  -3.9720917635577E-02
(PID.TID 0000.0001) %MON dynstat_uvel_mean            =   3.3733486019783E-09
(PID.TID 0000.0001) %MON dynstat_uvel_sd              =   1.1098942439494E-03
(PID.TID 0000.0001) %MON dynstat_uvel_del2            =   1.7035456676533E-06
(PID.TID 0000.0001) %MON dynstat_vvel_max             =   2.6201316635966E-02
(PID.TID 0000.0001) %MON dynstat_vvel_min             =  -1.0469536532412E-02
(PID.TID 0000.0001) %MON dynstat_vvel_mean            =   6.8999616760445E-08
(PID.TID 0000.0001) %MON dynstat_vvel_sd              =   5.1468380841012E-04
(PID.TID 0000.0001) %MON dynstat_vvel_del2            =   1.3695034104772E-06
(PID.TID 0000.0001) %MON dynstat_wvel_max             =   1.5935004891818E-03
(PID.TID 0000.0001) %MON dynstat_wvel_min             =  -2.0145065989354E-03
(PID.TID 0000.0001) %MON dynstat_wvel_mean            =   2.8753800987449E-10
(PID.TID 0000.0001) %MON dynstat_wvel_sd              =   2.6161998841919E-05
(PID.TID 0000.0001) %MON dynstat_wvel_del2            =   1.0538223279129E-07
(PID.TID 0000.0001) %MON dynstat_theta_max            =   1.2000000000000E+00
(PID.TID 0000.0001) %MON dynstat_theta_min            =  -1.0000000000000E+00
(PID.TID 0000.0001) %MON dynstat_theta_mean           =   5.6504090116959E-01
(PID.TID 0000.0001) %MON dynstat_theta_sd             =   8.4889964042244E-01
(PID.TID 0000.0001) %MON dynstat_theta_del2           =   3.8082964473504E-06
(PID.TID 0000.0001) %MON dynstat_salt_max             =   3.4700000000000E+01
(PID.TID 0000.0001) %MON dynstat_salt_min             =   3.4000000000000E+01
(PID.TID 0000.0001) %MON dynstat_salt_mean            =   3.4497930411427E+01
(PID.TID 0000.0001) %MON dynstat_salt_sd              =   2.7009762306760E-01
(PID.TID 0000.0001) %MON dynstat_salt_del2            =   1.5075031951755E-06
(PID.TID 0000.0001) %MON advcfl_uvel_max              =   3.9720917635577E-03
(PID.TID 0000.0001) %MON advcfl_vvel_max              =   2.6201316635966E-03
(PID.TID 0000.0001) %MON advcfl_wvel_max              =   1.0072532994677E-02
(PID.TID 0000.0001) %MON advcfl_W_hf_max              =   1.0072532994677E-02
(PID.TID 0000.0001) %MON pe_b_mean                    =  -6.8179919642029E-01
(PID.TID 0000.0001) %MON ke_max                       =   6.8172610050520E-04
(PID.TID 0000.0001) %MON ke_mean                      =   7.3679983939203E-07
(PID.TID 0000.0001) %MON ke_vol                       =   4.6183102563060E+12
(PID.TID 0000.0001) // =======================================================
(PID.TID 0000.0001) // End MONITOR dynamic field statistics
(PID.TID 0000.0001) // =======================================================
(PID.TID 0000.0001) // =======================================================
(PID.TID 0000.0001) // Begin OBCS MONITOR field statistics
(PID.TID 0000.0001) // =======================================================
(PID.TID 0000.0001) %MON obc_N_vVel_max               =   3.7288681857710E-08
(PID.TID 0000.0001) %MON obc_N_vVel_min               =   3.7288681857710E-08
(PID.TID 0000.0001) %MON obc_N_vVel_mean              =   3.7288681857710E-08
(PID.TID 0000.0001) %MON obc_N_vVel_sd                =   8.2246472643331E-15
(PID.TID 0000.0001) %MON obc_N_vVel_Int               =   2.4610530026089E+00
(PID.TID 0000.0001) // =======================================================
(PID.TID 0000.0001) // End OBCS MONITOR field statistics
(PID.TID 0000.0001) // =======================================================
 cg2d: Sum(rhs),rhsMax =   3.00787693850078E+00  4.53042376546907E+02
(PID.TID 0000.0001)      cg2d_init_res =   4.31562850498105E-06
(PID.TID 0000.0001)      cg2d_iters(min,last) =      -1      76
(PID.TID 0000.0001)      cg2d_last_res =   9.38771494497922E-12
(PID.TID 0000.0001) // =======================================================
(PID.TID 0000.0001) // Begin MONITOR dynamic field statistics
(PID.TID 0000.0001) // =======================================================
(PID.TID 0000.0001) %MON time_tsnumber                =                  1274
(PID.TID 0000.0001) %MON time_secondsf                =   1.2740000000000E+05
(PID.TID 0000.0001) %MON dynstat_eta_max              =   5.7989941389447E+00
(PID.TID 0000.0001) %MON dynstat_eta_min              =  -1.4169496676843E+01
(PID.TID 0000.0001) %MON dynstat_eta_mean             =  -2.5235105862575E+00
(PID.TID 0000.0001) %MON dynstat_eta_sd               =   4.9409154969332E+00
(PID.TID 0000.0001) %MON dynstat_eta_del2             =   1.9058936822152E-01
(PID.TID 0000.0001) %MON dynstat_uvel_max             =   8.7047136023708E-03
(PID.TID 0000.0001) %MON dynstat_uvel_min             =  -3.9806910647213E-02
(PID.TID 0000.0001) %MON dynstat_uvel_mean            =   3.3934154819679E-09
(PID.TID 0000.0001) %MON dynstat_uvel_sd              =   1.1125062723048E-03
(PID.TID 0000.0001) %MON dynstat_uvel_del2            =   1.7076348742522E-06
(PID.TID 0000.0001) %MON dynstat_vvel_max             =   2.6242916247489E-02
(PID.TID 0000.0001) %MON dynstat_vvel_min             =  -1.0500918264915E-02
(PID.TID 0000.0001) %MON dynstat_vvel_mean            =   5.8490343614039E-08
(PID.TID 0000.0001) %MON dynstat_vvel_sd              =   5.1570901334954E-04
(PID.TID 0000.0001) %MON dynstat_vvel_del2            =   1.3721910810015E-06
(PID.TID 0000.0001) %MON dynstat_wvel_max             =   1.5966782226816E-03
(PID.TID 0000.0001) %MON dynstat_wvel_min             =  -2.0192726366508E-03
(PID.TID 0000.0001) %MON dynstat_wvel_mean            =   2.8927071051511E-10
(PID.TID 0000.0001) %MON dynstat_wvel_sd              =   2.6221197100772E-05
(PID.TID 0000.0001) %MON dynstat_wvel_del2            =   1.0560087141504E-07
(PID.TID 0000.0001) %MON dynstat_theta_max            =   1.2000000000000E+00
(PID.TID 0000.0001) %MON dynstat_theta_min            =  -1.0000000000000E+00
(PID.TID 0000.0001) %MON dynstat_theta_mean           =   5.6504004819228E-01
(PID.TID 0000.0001) %MON dynstat_theta_sd             =   8.4889925499650E-01
(PID.TID 0000.0001) %MON dynstat_theta_del2           =   3.8155307056963E-06
(PID.TID 0000.0001) %MON dynstat_salt_max             =   3.4700000000000E+01
(PID.TID 0000.0001) %MON dynstat_salt_min             =   3.4000000000000E+01
(PID.TID 0000.0001) %MON dynstat_salt_mean            =   3.4497930070595E+01
(PID.TID 0000.0001) %MON dynstat_salt_sd              =   2.7009747747722E-01
(PID.TID 0000.0001) %MON dynstat_salt_del2            =   1.5103709393942E-06
(PID.TID 0000.0001) %MON advcfl_uvel_max              =   3.9806910647213E-03
(PID.TID 0000.0001) %MON advcfl_vvel_max              =   2.6242916247489E-03
(PID.TID 0000.0001) %MON advcfl_wvel_max              =   1.0096363183254E-02
(PID.TID 0000.0001) %MON advcfl_W_hf_max              =   1.0096363183254E-02
(PID.TID 0000.0001) %MON pe_b_mean                    =  -6.8179690200567E-01
(PID.TID 0000.0001) %MON ke_max                       =   6.8507393239852E-04
(PID.TID 0000.0001) %MON ke_mean                      =   7.4017592983258E-07
(PID.TID 0000.0001) %MON ke_vol                       =   4.6183103016387E+12
(PID.TID 0000.0001) // =======================================================
(PID.TID 0000.0001) // End MONITOR dynamic field statistics
(PID.TID 0000.0001) // =======================================================
(PID.TID 0000.0001) // =======================================================
(PID.TID 0000.0001) // Begin OBCS MONITOR field statistics
(PID.TID 0000.0001) // =======================================================
(PID.TID 0000.0001) %MON obc_N_vVel_max               =   2.7235958532956E-08
(PID.TID 0000.0001) %MON obc_N_vVel_min               =   2.7235958532955E-08
(PID.TID 0000.0001) %MON obc_N_vVel_mean              =   2.7235958532956E-08
(PID.TID 0000.0001) %MON obc_N_vVel_sd                =  -3.0962790529925E-29
(PID.TID 0000.0001) %MON obc_N_vVel_Int               =   1.7975732631751E+00
(PID.TID 0000.0001) // =======================================================
(PID.TID 0000.0001) // End OBCS MONITOR field statistics
(PID.TID 0000.0001) // =======================================================
 cg2d: Sum(rhs),rhsMax =   3.00786790193347E+00  4.53042358644143E+02
(PID.TID 0000.0001)      cg2d_init_res =   4.32397204957896E-06
(PID.TID 0000.0001)      cg2d_iters(min,last) =      -1      76
(PID.TID 0000.0001)      cg2d_last_res =   9.41043067319189E-12
(PID.TID 0000.0001) // =======================================================
(PID.TID 0000.0001) // Begin MONITOR dynamic field statistics
(PID.TID 0000.0001) // =======================================================
(PID.TID 0000.0001) %MON time_tsnumber                =                  1275
(PID.TID 0000.0001) %MON time_secondsf                =   1.2750000000000E+05
(PID.TID 0000.0001) %MON dynstat_eta_max              =   5.7989969108110E+00
(PID.TID 0000.0001) %MON dynstat_eta_min              =  -1.4169480399468E+01
(PID.TID 0000.0001) %MON dynstat_eta_mean             =  -2.5235029051518E+00
(PID.TID 0000.0001) %MON dynstat_eta_sd               =   4.9409132844976E+00
(PID.TID 0000.0001) %MON dynstat_eta_del2             =   1.9058939145950E-01
(PID.TID 0000.0001) %MON dynstat_uvel_max             =   8.7247807282598E-03
(PID.TID 0000.0001) %MON dynstat_uvel_min             =  -3.9892992984858E-02
(PID.TID 0000.0001) %MON dynstat_uvel_mean            =   3.4052251535820E-09
(PID.TID 0000.0001) %MON dynstat_uvel_sd              =   1.1151235705671E-03
(PID.TID 0000.0001) %MON dynstat_uvel_del2            =   1.7117331232667E-06
(PID.TID 0000.0001) %MON dynstat_vvel_max             =   2.6284527559041E-02
(PID.TID 0000.0001) %MON dynstat_vvel_min             =  -1.0532373232742E-02
(PID.TID 0000.0001) %MON dynstat_vvel_mean            =   4.8025837026875E-08
(PID.TID 0000.0001) %MON dynstat_vvel_sd              =   5.1673607753172E-04
(PID.TID 0000.0001) %MON dynstat_vvel_del2            =   1.3748816532199E-06
(PID.TID 0000.0001) %MON dynstat_wvel_max             =   1.5998589474803E-03
(PID.TID 0000.0001) %MON dynstat_wvel_min             =  -2.0240409318602E-03
(PID.TID 0000.0001) %MON dynstat_wvel_mean            =   2.9240162637711E-10
(PID.TID 0000.0001) %MON dynstat_wvel_sd              =   2.6279877724286E-05
(PID.TID 0000.0001) %MON dynstat_wvel_del2            =   1.0581721298579E-07
(PID.TID 0000.0001) %MON dynstat_theta_max            =   1.2000000000000E+00
(PID.TID 0000.0001) %MON dynstat_theta_min            =  -1.0000000000000E+00
(PID.TID 0000.0001) %MON dynstat_theta_mean           =   5.6503919373331E-01
(PID.TID 0000.0001) %MON dynstat_theta_sd             =   8.4889886884835E-01
(PID.TID 0000.0001) %MON dynstat_theta_del2           =   3.8227759154200E-06
(PID.TID 0000.0001) %MON dynstat_salt_max             =   3.4700000000000E+01
(PID.TID 0000.0001) %MON dynstat_salt_min             =   3.4000000000000E+01
(PID.TID 0000.0001) %MON dynstat_salt_mean            =   3.4497929729169E+01
(PID.TID 0000.0001) %MON dynstat_salt_sd              =   2.7009733161499E-01
(PID.TID 0000.0001) %MON dynstat_salt_del2            =   1.5132428606459E-06
(PID.TID 0000.0001) %MON advcfl_uvel_max              =   3.9892992984858E-03
(PID.TID 0000.0001) %MON advcfl_vvel_max              =   2.6284527559041E-03
(PID.TID 0000.0001) %MON advcfl_wvel_max              =   1.0120204659301E-02
(PID.TID 0000.0001) %MON advcfl_W_hf_max              =   1.0120204659301E-02
(PID.TID 0000.0001) %MON pe_b_mean                    =  -6.8179460119704E-01
(PID.TID 0000.0001) %MON ke_max                       =   6.8843563551091E-04
(PID.TID 0000.0001) %MON ke_mean                      =   7.4356649265964E-07
(PID.TID 0000.0001) %MON ke_vol                       =   4.6183103471176E+12
(PID.TID 0000.0001) // =======================================================
(PID.TID 0000.0001) // End MONITOR dynamic field statistics
(PID.TID 0000.0001) // =======================================================
(PID.TID 0000.0001) // =======================================================
(PID.TID 0000.0001) // Begin OBCS MONITOR field statistics
(PID.TID 0000.0001) // =======================================================
(PID.TID 0000.0001) %MON obc_N_vVel_max               =   1.7099030884486E-08
(PID.TID 0000.0001) %MON obc_N_vVel_min               =   1.7099030884486E-08
(PID.TID 0000.0001) %MON obc_N_vVel_mean              =   1.7099030884486E-08
(PID.TID 0000.0001) %MON obc_N_vVel_sd                =   1.0877919644084E-15
(PID.TID 0000.0001) %MON obc_N_vVel_Int               =   1.1285360383761E+00
(PID.TID 0000.0001) // =======================================================
(PID.TID 0000.0001) // End OBCS MONITOR field statistics
(PID.TID 0000.0001) // =======================================================
 cg2d: Sum(rhs),rhsMax =   3.00785883874287E+00  4.53042340327436E+02
(PID.TID 0000.0001)      cg2d_init_res =   4.33224246452416E-06
(PID.TID 0000.0001)      cg2d_iters(min,last) =      -1      76
(PID.TID 0000.0001)      cg2d_last_res =   9.43314815822810E-12
(PID.TID 0000.0001) // =======================================================
(PID.TID 0000.0001) // Begin MONITOR dynamic field statistics
(PID.TID 0000.0001) // =======================================================
(PID.TID 0000.0001) %MON time_tsnumber                =                  1276
(PID.TID 0000.0001) %MON time_secondsf                =   1.2760000000000E+05
(PID.TID 0000.0001) %MON dynstat_eta_max              =   5.7989997011984E+00
(PID.TID 0000.0001) %MON dynstat_eta_min              =  -1.4169464071379E+01
(PID.TID 0000.0001) %MON dynstat_eta_mean             =  -2.5234951994049E+00
(PID.TID 0000.0001) %MON dynstat_eta_sd               =   4.9409110647693E+00
(PID.TID 0000.0001) %MON dynstat_eta_del2             =   1.9058941473453E-01
(PID.TID 0000.0001) %MON dynstat_uvel_max             =   8.7448790214051E-03
(PID.TID 0000.0001) %MON dynstat_uvel_min             =  -3.9979164686527E-02
(PID.TID 0000.0001) %MON dynstat_uvel_mean            =   3.4088238520983E-09
(PID.TID 0000.0001) %MON dynstat_uvel_sd              =   1.1177461460810E-03
(PID.TID 0000.0001) %MON dynstat_uvel_del2            =   1.7158404311296E-06
(PID.TID 0000.0001) %MON dynstat_vvel_max             =   2.6326150504830E-02
(PID.TID 0000.0001) %MON dynstat_vvel_min             =  -1.0563901331324E-02
(PID.TID 0000.0001) %MON dynstat_vvel_mean            =   3.7794966819270E-08
(PID.TID 0000.0001) %MON dynstat_vvel_sd              =   5.1776494818191E-04
(PID.TID 0000.0001) %MON dynstat_vvel_del2            =   1.3775748149227E-06
(PID.TID 0000.0001) %MON dynstat_wvel_max             =   1.6030426577225E-03
(PID.TID 0000.0001) %MON dynstat_wvel_min             =  -2.0288114180257E-03
(PID.TID 0000.0001) %MON dynstat_wvel_mean            =   2.9687037727700E-10
(PID.TID 0000.0001) %MON dynstat_wvel_sd              =   2.6337809279956E-05
(PID.TID 0000.0001) %MON dynstat_wvel_del2            =   1.0602995388315E-07
(PID.TID 0000.0001) %MON dynstat_theta_max            =   1.2000000000000E+00
(PID.TID 0000.0001) %MON dynstat_theta_min            =  -1.0000000000000E+00
(PID.TID 0000.0001) %MON dynstat_theta_mean           =   5.6503833779054E-01
(PID.TID 0000.0001) %MON dynstat_theta_sd             =   8.4889848197872E-01
(PID.TID 0000.0001) %MON dynstat_theta_del2           =   3.8300325099997E-06
(PID.TID 0000.0001) %MON dynstat_salt_max             =   3.4700000000000E+01
(PID.TID 0000.0001) %MON dynstat_salt_min             =   3.4000000000000E+01
(PID.TID 0000.0001) %MON dynstat_salt_mean            =   3.4497929387148E+01
(PID.TID 0000.0001) %MON dynstat_salt_sd              =   2.7009718548136E-01
(PID.TID 0000.0001) %MON dynstat_salt_del2            =   1.5161190746694E-06
(PID.TID 0000.0001) %MON advcfl_uvel_max              =   3.9979164686527E-03
(PID.TID 0000.0001) %MON advcfl_vvel_max              =   2.6326150504830E-03
(PID.TID 0000.0001) %MON advcfl_wvel_max              =   1.0144057090128E-02
(PID.TID 0000.0001) %MON advcfl_W_hf_max              =   1.0144057090128E-02
(PID.TID 0000.0001) %MON pe_b_mean                    =  -6.8179229404844E-01
(PID.TID 0000.0001) %MON ke_max                       =   6.9181125675743E-04
(PID.TID 0000.0001) %MON ke_mean                      =   7.4697155493968E-07
(PID.TID 0000.0001) %MON ke_vol                       =   4.6183103927434E+12
(PID.TID 0000.0001) // =======================================================
(PID.TID 0000.0001) // End MONITOR dynamic field statistics
(PID.TID 0000.0001) // =======================================================
(PID.TID 0000.0001) // =======================================================
(PID.TID 0000.0001) // Begin OBCS MONITOR field statistics
(PID.TID 0000.0001) // =======================================================
(PID.TID 0000.0001) %MON obc_N_vVel_max               =   7.0613378618802E-09
(PID.TID 0000.0001) %MON obc_N_vVel_min               =   7.0613378618801E-09
(PID.TID 0000.0001) %MON obc_N_vVel_mean              =   7.0613378618801E-09
(PID.TID 0000.0001) %MON obc_N_vVel_sd                =   6.7532230144643E-16
(PID.TID 0000.0001) %MON obc_N_vVel_Int               =   4.6604829888409E-01
(PID.TID 0000.0001) // =======================================================
(PID.TID 0000.0001) // End OBCS MONITOR field statistics
(PID.TID 0000.0001) // =======================================================
 cg2d: Sum(rhs),rhsMax =   3.00784974899005E+00  4.53042321638876E+02
(PID.TID 0000.0001)      cg2d_init_res =   4.34039376469208E-06
(PID.TID 0000.0001)      cg2d_iters(min,last) =      -1      76
(PID.TID 0000.0001)      cg2d_last_res =   9.45604296438833E-12
(PID.TID 0000.0001) // =======================================================
(PID.TID 0000.0001) // Begin MONITOR dynamic field statistics
(PID.TID 0000.0001) // =======================================================
(PID.TID 0000.0001) %MON time_tsnumber                =                  1277
(PID.TID 0000.0001) %MON time_secondsf                =   1.2770000000000E+05
(PID.TID 0000.0001) %MON dynstat_eta_max              =   5.7990025093501E+00
(PID.TID 0000.0001) %MON dynstat_eta_min              =  -1.4169447693397E+01
(PID.TID 0000.0001) %MON dynstat_eta_mean             =  -2.5234874693025E+00
(PID.TID 0000.0001) %MON dynstat_eta_sd               =   4.9409088379982E+00
(PID.TID 0000.0001) %MON dynstat_eta_del2             =   1.9058943804722E-01
(PID.TID 0000.0001) %MON dynstat_uvel_max             =   8.7650083971980E-03
(PID.TID 0000.0001) %MON dynstat_uvel_min             =  -4.0065425795218E-02
(PID.TID 0000.0001) %MON dynstat_uvel_mean            =   3.4044096291055E-09
(PID.TID 0000.0001) %MON dynstat_uvel_sd              =   1.1203740063256E-03
(PID.TID 0000.0001) %MON dynstat_uvel_del2            =   1.7199568133527E-06
(PID.TID 0000.0001) %MON dynstat_vvel_max             =   2.6367785018510E-02
(PID.TID 0000.0001) %MON dynstat_vvel_min             =  -1.0595502456434E-02
(PID.TID 0000.0001) %MON dynstat_vvel_mean            =   2.7980679041452E-08
(PID.TID 0000.0001) %MON dynstat_vvel_sd              =   5.1879558584104E-04
(PID.TID 0000.0001) %MON dynstat_vvel_del2            =   1.3802703452573E-06
(PID.TID 0000.0001) %MON dynstat_wvel_max             =   1.6062293475061E-03
(PID.TID 0000.0001) %MON dynstat_wvel_min             =  -2.0335840278439E-03
(PID.TID 0000.0001) %MON dynstat_wvel_mean            =   3.0259445489145E-10
(PID.TID 0000.0001) %MON dynstat_wvel_sd              =   2.6394823675909E-05
(PID.TID 0000.0001) %MON dynstat_wvel_del2            =   1.0623807582565E-07
(PID.TID 0000.0001) %MON dynstat_theta_max            =   1.2000000000000E+00
(PID.TID 0000.0001) %MON dynstat_theta_min            =  -1.0000000000000E+00
(PID.TID 0000.0001) %MON dynstat_theta_mean           =   5.6503748036189E-01
(PID.TID 0000.0001) %MON dynstat_theta_sd             =   8.4889809438786E-01
(PID.TID 0000.0001) %MON dynstat_theta_del2           =   3.8373006867991E-06
(PID.TID 0000.0001) %MON dynstat_salt_max             =   3.4700000000000E+01
(PID.TID 0000.0001) %MON dynstat_salt_min             =   3.4000000000000E+01
(PID.TID 0000.0001) %MON dynstat_salt_mean            =   3.4497929044531E+01
(PID.TID 0000.0001) %MON dynstat_salt_sd              =   2.7009703907629E-01
(PID.TID 0000.0001) %MON dynstat_salt_del2            =   1.5189996279816E-06
(PID.TID 0000.0001) %MON advcfl_uvel_max              =   4.0065425795218E-03
(PID.TID 0000.0001) %MON advcfl_vvel_max              =   2.6367785018510E-03
(PID.TID 0000.0001) %MON advcfl_wvel_max              =   1.0167920139220E-02
(PID.TID 0000.0001) %MON advcfl_W_hf_max              =   1.0167920139220E-02
(PID.TID 0000.0001) %MON pe_b_mean                    =  -6.8178998065269E-01
(PID.TID 0000.0001) %MON ke_max                       =   6.9520084322950E-04
(PID.TID 0000.0001) %MON ke_mean                      =   7.5039115073708E-07
(PID.TID 0000.0001) %MON ke_vol                       =   4.6183104385155E+12
(PID.TID 0000.0001) // =======================================================
(PID.TID 0000.0001) // End MONITOR dynamic field statistics
(PID.TID 0000.0001) // =======================================================
(PID.TID 0000.0001) // =======================================================
(PID.TID 0000.0001) // Begin OBCS MONITOR field statistics
(PID.TID 0000.0001) // =======================================================
(PID.TID 0000.0001) %MON obc_N_vVel_max               =  -2.6972577957087E-09
(PID.TID 0000.0001) %MON obc_N_vVel_min               =  -2.6972577957087E-09
(PID.TID 0000.0001) %MON obc_N_vVel_mean              =  -2.6972577957087E-09
(PID.TID 0000.0001) %MON obc_N_vVel_sd                =   4.4754520913118E-16
(PID.TID 0000.0001) %MON obc_N_vVel_Int               =  -1.7801901451677E-01
(PID.TID 0000.0001) // =======================================================
(PID.TID 0000.0001) // End OBCS MONITOR field statistics
(PID.TID 0000.0001) // =======================================================
 cg2d: Sum(rhs),rhsMax =   3.00784063293307E+00  4.53042302625069E+02
(PID.TID 0000.0001)      cg2d_init_res =   4.34841606747442E-06
(PID.TID 0000.0001)      cg2d_iters(min,last) =      -1      76
(PID.TID 0000.0001)      cg2d_last_res =   9.47894962411897E-12
(PID.TID 0000.0001) // =======================================================
(PID.TID 0000.0001) // Begin MONITOR dynamic field statistics
(PID.TID 0000.0001) // =======================================================
(PID.TID 0000.0001) %MON time_tsnumber                =                  1278
(PID.TID 0000.0001) %MON time_secondsf                =   1.2780000000000E+05
(PID.TID 0000.0001) %MON dynstat_eta_max              =   5.7990053341972E+00
(PID.TID 0000.0001) %MON dynstat_eta_min              =  -1.4169431266677E+01
(PID.TID 0000.0001) %MON dynstat_eta_mean             =  -2.5234797153208E+00
(PID.TID 0000.0001) %MON dynstat_eta_sd               =   4.9409066044930E+00
(PID.TID 0000.0001) %MON dynstat_eta_del2             =   1.9058946139854E-01
(PID.TID 0000.0001) %MON dynstat_uvel_max             =   8.7851687701095E-03
(PID.TID 0000.0001) %MON dynstat_uvel_min             =  -4.0151776348272E-02
(PID.TID 0000.0001) %MON dynstat_uvel_mean            =   3.3923208259557E-09
(PID.TID 0000.0001) %MON dynstat_uvel_sd              =   1.1230071587035E-03
(PID.TID 0000.0001) %MON dynstat_uvel_del2            =   1.7240822848787E-06
(PID.TID 0000.0001) %MON dynstat_vvel_max             =   2.6409431032701E-02
(PID.TID 0000.0001) %MON dynstat_vvel_min             =  -1.0627176504421E-02
(PID.TID 0000.0001) %MON dynstat_vvel_mean            =   1.8756828864819E-08
(PID.TID 0000.0001) %MON dynstat_vvel_sd              =   5.1982796580453E-04
(PID.TID 0000.0001) %MON dynstat_vvel_del2            =   1.3829681166585E-06
(PID.TID 0000.0001) %MON dynstat_wvel_max             =   1.6094190108954E-03
(PID.TID 0000.0001) %MON dynstat_wvel_min             =  -2.0383586933850E-03
(PID.TID 0000.0001) %MON dynstat_wvel_mean            =   3.0946968848681E-10
(PID.TID 0000.0001) %MON dynstat_wvel_sd              =   2.6450825615855E-05
(PID.TID 0000.0001) %MON dynstat_wvel_del2            =   1.0644089904306E-07
(PID.TID 0000.0001) %MON dynstat_theta_max            =   1.2000000000000E+00
(PID.TID 0000.0001) %MON dynstat_theta_min            =  -1.0000000000000E+00
(PID.TID 0000.0001) %MON dynstat_theta_mean           =   5.6503662144516E-01
(PID.TID 0000.0001) %MON dynstat_theta_sd             =   8.4889770607668E-01
(PID.TID 0000.0001) %MON dynstat_theta_del2           =   3.8445805493713E-06
(PID.TID 0000.0001) %MON dynstat_salt_max             =   3.4700000000000E+01
(PID.TID 0000.0001) %MON dynstat_salt_min             =   3.4000000000000E+01
(PID.TID 0000.0001) %MON dynstat_salt_mean            =   3.4497928701318E+01
(PID.TID 0000.0001) %MON dynstat_salt_sd              =   2.7009689240002E-01
(PID.TID 0000.0001) %MON dynstat_salt_del2            =   1.5218845297219E-06
(PID.TID 0000.0001) %MON advcfl_uvel_max              =   4.0151776348272E-03
(PID.TID 0000.0001) %MON advcfl_vvel_max              =   2.6409431032701E-03
(PID.TID 0000.0001) %MON advcfl_wvel_max              =   1.0191793466925E-02
(PID.TID 0000.0001) %MON advcfl_W_hf_max              =   1.0191793466925E-02
(PID.TID 0000.0001) %MON pe_b_mean                    =  -6.8178766113897E-01
(PID.TID 0000.0001) %MON ke_max                       =   6.9860444192796E-04
(PID.TID 0000.0001) %MON ke_mean                      =   7.5382532170083E-07
(PID.TID 0000.0001) %MON ke_vol                       =   4.6183104844323E+12
(PID.TID 0000.0001) // =======================================================
(PID.TID 0000.0001) // End MONITOR dynamic field statistics
(PID.TID 0000.0001) // =======================================================
(PID.TID 0000.0001) // =======================================================
(PID.TID 0000.0001) // Begin OBCS MONITOR field statistics
(PID.TID 0000.0001) // =======================================================
(PID.TID 0000.0001) %MON obc_N_vVel_max               =  -1.2003594158130E-08
(PID.TID 0000.0001) %MON obc_N_vVel_min               =  -1.2003594158130E-08
(PID.TID 0000.0001) %MON obc_N_vVel_mean              =  -1.2003594158130E-08
(PID.TID 0000.0001) %MON obc_N_vVel_sd                =  -1.4791141972894E-30
(PID.TID 0000.0001) %MON obc_N_vVel_Int               =  -7.9223721443660E-01
(PID.TID 0000.0001) // =======================================================
(PID.TID 0000.0001) // End OBCS MONITOR field statistics
(PID.TID 0000.0001) // =======================================================
 cg2d: Sum(rhs),rhsMax =   3.00783149102218E+00  4.53042283336422E+02
(PID.TID 0000.0001)      cg2d_init_res =   4.35629583290124E-06
(PID.TID 0000.0001)      cg2d_iters(min,last) =      -1      76
(PID.TID 0000.0001)      cg2d_last_res =   9.50182493195397E-12
(PID.TID 0000.0001) // =======================================================
(PID.TID 0000.0001) // Begin MONITOR dynamic field statistics
(PID.TID 0000.0001) // =======================================================
(PID.TID 0000.0001) %MON time_tsnumber                =                  1279
(PID.TID 0000.0001) %MON time_secondsf                =   1.2790000000000E+05
(PID.TID 0000.0001) %MON dynstat_eta_max              =   5.7990081743883E+00
(PID.TID 0000.0001) %MON dynstat_eta_min              =  -1.4169414792709E+01
(PID.TID 0000.0001) %MON dynstat_eta_mean             =  -2.5234719381183E+00
(PID.TID 0000.0001) %MON dynstat_eta_sd               =   4.9409043646095E+00
(PID.TID 0000.0001) %MON dynstat_eta_del2             =   1.9058948478945E-01
(PID.TID 0000.0001) %MON dynstat_uvel_max             =   8.8053600537208E-03
(PID.TID 0000.0001) %MON dynstat_uvel_min             =  -4.0238216384154E-02
(PID.TID 0000.0001) %MON dynstat_uvel_mean            =   3.3730268809389E-09
(PID.TID 0000.0001) %MON dynstat_uvel_sd              =   1.1256456105461E-03
(PID.TID 0000.0001) %MON dynstat_uvel_del2            =   1.7282168604323E-06
(PID.TID 0000.0001) %MON dynstat_vvel_max             =   2.6451088478649E-02
(PID.TID 0000.0001) %MON dynstat_vvel_min             =  -1.0658923373096E-02
(PID.TID 0000.0001) %MON dynstat_vvel_mean            =   1.0285199876422E-08
(PID.TID 0000.0001) %MON dynstat_vvel_sd              =   5.2086207940580E-04
(PID.TID 0000.0001) %MON dynstat_vvel_del2            =   1.3856681015177E-06
(PID.TID 0000.0001) %MON dynstat_wvel_max             =   1.6126116419052E-03
(PID.TID 0000.0001) %MON dynstat_wvel_min             =  -2.0431353460547E-03
(PID.TID 0000.0001) %MON dynstat_wvel_mean            =   3.1737329947257E-10
(PID.TID 0000.0001) %MON dynstat_wvel_sd              =   2.6505797549847E-05
(PID.TID 0000.0001) %MON dynstat_wvel_del2            =   1.0663812417933E-07
(PID.TID 0000.0001) %MON dynstat_theta_max            =   1.2000000000000E+00
(PID.TID 0000.0001) %MON dynstat_theta_min            =  -1.0000000000000E+00
(PID.TID 0000.0001) %MON dynstat_theta_mean           =   5.6503576103827E-01
(PID.TID 0000.0001) %MON dynstat_theta_sd             =   8.4889731704626E-01
(PID.TID 0000.0001) %MON dynstat_theta_del2           =   3.8518720468311E-06
(PID.TID 0000.0001) %MON dynstat_salt_max             =   3.4700000000000E+01
(PID.TID 0000.0001) %MON dynstat_salt_min             =   3.4000000000000E+01
(PID.TID 0000.0001) %MON dynstat_salt_mean            =   3.4497928357507E+01
(PID.TID 0000.0001) %MON dynstat_salt_sd              =   2.7009674545299E-01
(PID.TID 0000.0001) %MON dynstat_salt_del2            =   1.5247737570203E-06
(PID.TID 0000.0001) %MON advcfl_uvel_max              =   4.0238216384154E-03
(PID.TID 0000.0001) %MON advcfl_vvel_max              =   2.6451088478649E-03
(PID.TID 0000.0001) %MON advcfl_wvel_max              =   1.0215676730273E-02
(PID.TID 0000.0001) %MON advcfl_W_hf_max              =   1.0215676730273E-02
(PID.TID 0000.0001) %MON pe_b_mean                    =  -6.8178533567038E-01
(PID.TID 0000.0001) %MON ke_max                       =   7.0202209994473E-04
(PID.TID 0000.0001) %MON ke_mean                      =   7.5727411781508E-07
(PID.TID 0000.0001) %MON ke_vol                       =   4.6183105304910E+12
(PID.TID 0000.0001) // =======================================================
(PID.TID 0000.0001) // End MONITOR dynamic field statistics
(PID.TID 0000.0001) // =======================================================
(PID.TID 0000.0001) // =======================================================
(PID.TID 0000.0001) // Begin OBCS MONITOR field statistics
(PID.TID 0000.0001) // =======================================================
(PID.TID 0000.0001) %MON obc_N_vVel_max               =  -2.0694207112744E-08
(PID.TID 0000.0001) %MON obc_N_vVel_min               =  -2.0694207112745E-08
(PID.TID 0000.0001) %MON obc_N_vVel_mean              =  -2.0694207112744E-08
(PID.TID 0000.0001) %MON obc_N_vVel_sd                =   4.5667833517456E-15
(PID.TID 0000.0001) %MON obc_N_vVel_Int               =  -1.3658176694411E+00
(PID.TID 0000.0001) // =======================================================
(PID.TID 0000.0001) // End OBCS MONITOR field statistics
(PID.TID 0000.0001) // =======================================================
 cg2d: Sum(rhs),rhsMax =   3.00782232388944E+00  4.53042263826192E+02
(PID.TID 0000.0001)      cg2d_init_res =   4.36402461583780E-06
(PID.TID 0000.0001)      cg2d_iters(min,last) =      -1      76
(PID.TID 0000.0001)      cg2d_last_res =   9.52462676427889E-12
(PID.TID 0000.0001) // =======================================================
(PID.TID 0000.0001) // Begin MONITOR dynamic field statistics
(PID.TID 0000.0001) // =======================================================
(PID.TID 0000.0001) %MON time_tsnumber                =                  1280
(PID.TID 0000.0001) %MON time_secondsf                =   1.2800000000000E+05
(PID.TID 0000.0001) %MON dynstat_eta_max              =   5.7990110283211E+00
(PID.TID 0000.0001) %MON dynstat_eta_min              =  -1.4169398273257E+01
(PID.TID 0000.0001) %MON dynstat_eta_mean             =  -2.5234641385219E+00
(PID.TID 0000.0001) %MON dynstat_eta_sd               =   4.9409021187453E+00
(PID.TID 0000.0001) %MON dynstat_eta_del2             =   1.9058950822088E-01
(PID.TID 0000.0001) %MON dynstat_uvel_max             =   8.8255821605072E-03
(PID.TID 0000.0001) %MON dynstat_uvel_min             =  -4.0324745942425E-02
(PID.TID 0000.0001) %MON dynstat_uvel_mean            =   3.3471169917733E-09
(PID.TID 0000.0001) %MON dynstat_uvel_sd              =   1.1282893691209E-03
(PID.TID 0000.0001) %MON dynstat_uvel_del2            =   1.7323605544610E-06
(PID.TID 0000.0001) %MON dynstat_vvel_max             =   2.6492757285904E-02
(PID.TID 0000.0001) %MON dynstat_vvel_min             =  -1.0690742962584E-02
(PID.TID 0000.0001) %MON dynstat_vvel_mean            =   2.7127580305718E-09
(PID.TID 0000.0001) %MON dynstat_vvel_sd              =   5.2189793414716E-04
(PID.TID 0000.0001) %MON dynstat_vvel_del2            =   1.3883703714642E-06
(PID.TID 0000.0001) %MON dynstat_wvel_max             =   1.6158072345446E-03
(PID.TID 0000.0001) %MON dynstat_wvel_min             =  -2.0479139164710E-03
(PID.TID 0000.0001) %MON dynstat_wvel_mean            =   3.2616561762897E-10
(PID.TID 0000.0001) %MON dynstat_wvel_sd              =   2.6559799188672E-05
(PID.TID 0000.0001) %MON dynstat_wvel_del2            =   1.0682984741118E-07
(PID.TID 0000.0001) %MON dynstat_theta_max            =   1.2000000000000E+00
(PID.TID 0000.0001) %MON dynstat_theta_min            =  -1.0000000000000E+00
(PID.TID 0000.0001) %MON dynstat_theta_mean           =   5.6503489913926E-01
(PID.TID 0000.0001) %MON dynstat_theta_sd             =   8.4889692729756E-01
(PID.TID 0000.0001) %MON dynstat_theta_del2           =   3.8591749755365E-06
(PID.TID 0000.0001) %MON dynstat_salt_max             =   3.4700000000000E+01
(PID.TID 0000.0001) %MON dynstat_salt_min             =   3.4000000000000E+01
(PID.TID 0000.0001) %MON dynstat_salt_mean            =   3.4497928013097E+01
(PID.TID 0000.0001) %MON dynstat_salt_sd              =   2.7009659823545E-01
(PID.TID 0000.0001) %MON dynstat_salt_del2            =   1.5276672436151E-06
(PID.TID 0000.0001) %MON advcfl_uvel_max              =   4.0324745942425E-03
(PID.TID 0000.0001) %MON advcfl_vvel_max              =   2.6492757285904E-03
(PID.TID 0000.0001) %MON advcfl_wvel_max              =   1.0239569582355E-02
(PID.TID 0000.0001) %MON advcfl_W_hf_max              =   1.0239569582355E-02
(PID.TID 0000.0001) %MON pe_b_mean                    =  -6.8178300444064E-01
(PID.TID 0000.0001) %MON ke_max                       =   7.0545386446754E-04
(PID.TID 0000.0001) %MON ke_mean                      =   7.6073759755889E-07
(PID.TID 0000.0001) %MON ke_vol                       =   4.6183105766876E+12
(PID.TID 0000.0001) // =======================================================
(PID.TID 0000.0001) // End MONITOR dynamic field statistics
(PID.TID 0000.0001) // =======================================================
(PID.TID 0000.0001) // =======================================================
(PID.TID 0000.0001) // Begin OBCS MONITOR field statistics
(PID.TID 0000.0001) // =======================================================
(PID.TID 0000.0001) %MON obc_N_vVel_max               =  -2.8618076772841E-08
(PID.TID 0000.0001) %MON obc_N_vVel_min               =  -2.8618076772842E-08
(PID.TID 0000.0001) %MON obc_N_vVel_mean              =  -2.8618076772841E-08
(PID.TID 0000.0001) %MON obc_N_vVel_sd                =   8.2366278202312E-15
(PID.TID 0000.0001) %MON obc_N_vVel_Int               =  -1.8887930670075E+00
(PID.TID 0000.0001) // =======================================================
(PID.TID 0000.0001) // End OBCS MONITOR field statistics
(PID.TID 0000.0001) // =======================================================
 cg2d: Sum(rhs),rhsMax =   3.00781313233438E+00  4.53042244149517E+02
(PID.TID 0000.0001)      cg2d_init_res =   4.37160064047912E-06
(PID.TID 0000.0001)      cg2d_iters(min,last) =      -1      76
(PID.TID 0000.0001)      cg2d_last_res =   9.54730774633700E-12
(PID.TID 0000.0001) // =======================================================
(PID.TID 0000.0001) // Begin MONITOR dynamic field statistics
(PID.TID 0000.0001) // =======================================================
(PID.TID 0000.0001) %MON time_tsnumber                =                  1281
(PID.TID 0000.0001) %MON time_secondsf                =   1.2810000000000E+05
(PID.TID 0000.0001) %MON dynstat_eta_max              =   5.7990138941631E+00
(PID.TID 0000.0001) %MON dynstat_eta_min              =  -1.4169381710350E+01
(PID.TID 0000.0001) %MON dynstat_eta_mean             =  -2.5234563175095E+00
(PID.TID 0000.0001) %MON dynstat_eta_sd               =   4.9408998673316E+00
(PID.TID 0000.0001) %MON dynstat_eta_del2             =   1.9058953169385E-01
(PID.TID 0000.0001) %MON dynstat_uvel_max             =   8.8458350019369E-03
(PID.TID 0000.0001) %MON dynstat_uvel_min             =  -4.0411365062536E-02
(PID.TID 0000.0001) %MON dynstat_uvel_mean            =   3.3152913349533E-09
(PID.TID 0000.0001) %MON dynstat_uvel_sd              =   1.1309384416432E-03
(PID.TID 0000.0001) %MON dynstat_uvel_del2            =   1.7365133812691E-06
(PID.TID 0000.0001) %MON dynstat_vvel_max             =   2.6534437381891E-02
(PID.TID 0000.0001) %MON dynstat_vvel_min             =  -1.0722635175243E-02
(PID.TID 0000.0001) %MON dynstat_vvel_mean            =  -3.8308204819405E-09
(PID.TID 0000.0001) %MON dynstat_vvel_sd              =   5.2293555271982E-04
(PID.TID 0000.0001) %MON dynstat_vvel_del2            =   1.3910750900084E-06
(PID.TID 0000.0001) %MON dynstat_wvel_max             =   1.6190057827709E-03
(PID.TID 0000.0001) %MON dynstat_wvel_min             =  -2.0526943344818E-03
(PID.TID 0000.0001) %MON dynstat_wvel_mean            =   3.3569282068891E-10
(PID.TID 0000.0001) %MON dynstat_wvel_sd              =   2.6612961828031E-05
(PID.TID 0000.0001) %MON dynstat_wvel_del2            =   1.0701655009776E-07
(PID.TID 0000.0001) %MON dynstat_theta_max            =   1.2000000000000E+00
(PID.TID 0000.0001) %MON dynstat_theta_min            =  -1.0000000000000E+00
(PID.TID 0000.0001) %MON dynstat_theta_mean           =   5.6503403574626E-01
(PID.TID 0000.0001) %MON dynstat_theta_sd             =   8.4889653683065E-01
(PID.TID 0000.0001) %MON dynstat_theta_del2           =   3.8664890015067E-06
(PID.TID 0000.0001) %MON dynstat_salt_max             =   3.4700000000000E+01
(PID.TID 0000.0001) %MON dynstat_salt_min             =   3.4000000000000E+01
(PID.TID 0000.0001) %MON dynstat_salt_mean            =   3.4497927668088E+01
(PID.TID 0000.0001) %MON dynstat_salt_sd              =   2.7009645074748E-01
(PID.TID 0000.0001) %MON dynstat_salt_del2            =   1.5305648875307E-06
(PID.TID 0000.0001) %MON advcfl_uvel_max              =   4.0411365062536E-03
(PID.TID 0000.0001) %MON advcfl_vvel_max              =   2.6534437381891E-03
(PID.TID 0000.0001) %MON advcfl_wvel_max              =   1.0263471672409E-02
(PID.TID 0000.0001) %MON advcfl_W_hf_max              =   1.0263471672409E-02
(PID.TID 0000.0001) %MON pe_b_mean                    =  -6.8178066767015E-01
(PID.TID 0000.0001) %MON ke_max                       =   7.0889978274552E-04
(PID.TID 0000.0001) %MON ke_mean                      =   7.6421582749242E-07
(PID.TID 0000.0001) %MON ke_vol                       =   4.6183106230172E+12
(PID.TID 0000.0001) // =======================================================
(PID.TID 0000.0001) // End MONITOR dynamic field statistics
(PID.TID 0000.0001) // =======================================================
(PID.TID 0000.0001) // =======================================================
(PID.TID 0000.0001) // Begin OBCS MONITOR field statistics
(PID.TID 0000.0001) // =======================================================
(PID.TID 0000.0001) %MON obc_N_vVel_max               =  -3.5639206814918E-08
(PID.TID 0000.0001) %MON obc_N_vVel_min               =  -3.5639206814919E-08
(PID.TID 0000.0001) %MON obc_N_vVel_mean              =  -3.5639206814919E-08
(PID.TID 0000.0001) %MON obc_N_vVel_sd                =  -6.7842037849007E-29
(PID.TID 0000.0001) %MON obc_N_vVel_Int               =  -2.3521876497846E+00
(PID.TID 0000.0001) // =======================================================
(PID.TID 0000.0001) // End OBCS MONITOR field statistics
(PID.TID 0000.0001) // =======================================================
 cg2d: Sum(rhs),rhsMax =   3.00780391730600E+00  4.53042224362615E+02
(PID.TID 0000.0001)      cg2d_init_res =   4.37902808967718E-06
(PID.TID 0000.0001)      cg2d_iters(min,last) =      -1      76
(PID.TID 0000.0001)      cg2d_last_res =   9.56982796616869E-12
(PID.TID 0000.0001) // =======================================================
(PID.TID 0000.0001) // Begin MONITOR dynamic field statistics
(PID.TID 0000.0001) // =======================================================
(PID.TID 0000.0001) %MON time_tsnumber                =                  1282
(PID.TID 0000.0001) %MON time_secondsf                =   1.2820000000000E+05
(PID.TID 0000.0001) %MON dynstat_eta_max              =   5.7990167698932E+00
(PID.TID 0000.0001) %MON dynstat_eta_min              =  -1.4169365106226E+01
(PID.TID 0000.0001) %MON dynstat_eta_mean             =  -2.5234484761905E+00
(PID.TID 0000.0001) %MON dynstat_eta_sd               =   4.9408976108250E+00
(PID.TID 0000.0001) %MON dynstat_eta_del2             =   1.9058955520933E-01
(PID.TID 0000.0001) %MON dynstat_uvel_max             =   8.8661184885330E-03
(PID.TID 0000.0001) %MON dynstat_uvel_min             =  -4.0498073783711E-02
(PID.TID 0000.0001) %MON dynstat_uvel_mean            =   3.2783536004076E-09
(PID.TID 0000.0001) %MON dynstat_uvel_sd              =   1.1335928352889E-03
(PID.TID 0000.0001) %MON dynstat_uvel_del2            =   1.7406753551365E-06
(PID.TID 0000.0001) %MON dynstat_vvel_max             =   2.6576128691718E-02
(PID.TID 0000.0001) %MON dynstat_vvel_min             =  -1.0754599916195E-02
(PID.TID 0000.0001) %MON dynstat_vvel_mean            =  -9.2353012166888E-09
(PID.TID 0000.0001) %MON dynstat_vvel_sd              =   5.2397497099869E-04
(PID.TID 0000.0001) %MON dynstat_vvel_del2            =   1.3937824989899E-06
(PID.TID 0000.0001) %MON dynstat_wvel_max             =   1.6222072805383E-03
(PID.TID 0000.0001) %MON dynstat_wvel_min             =  -2.0574765291663E-03
(PID.TID 0000.0001) %MON dynstat_wvel_mean            =   3.4578956961545E-10
(PID.TID 0000.0001) %MON dynstat_wvel_sd              =   2.6665477918633E-05
(PID.TID 0000.0001) %MON dynstat_wvel_del2            =   1.0719906319886E-07
(PID.TID 0000.0001) %MON dynstat_theta_max            =   1.2000000000000E+00
(PID.TID 0000.0001) %MON dynstat_theta_min            =  -1.0000000000000E+00
(PID.TID 0000.0001) %MON dynstat_theta_mean           =   5.6503317085734E-01
(PID.TID 0000.0001) %MON dynstat_theta_sd             =   8.4889614564547E-01
(PID.TID 0000.0001) %MON dynstat_theta_del2           =   3.8738137913087E-06
(PID.TID 0000.0001) %MON dynstat_salt_max             =   3.4700000000000E+01
(PID.TID 0000.0001) %MON dynstat_salt_min             =   3.4000000000000E+01
(PID.TID 0000.0001) %MON dynstat_salt_mean            =   3.4497927322479E+01
(PID.TID 0000.0001) %MON dynstat_salt_sd              =   2.7009630298903E-01
(PID.TID 0000.0001) %MON dynstat_salt_del2            =   1.5334666017584E-06
(PID.TID 0000.0001) %MON advcfl_uvel_max              =   4.0498073783711E-03
(PID.TID 0000.0001) %MON advcfl_vvel_max              =   2.6576128691718E-03
(PID.TID 0000.0001) %MON advcfl_wvel_max              =   1.0287382645832E-02
(PID.TID 0000.0001) %MON advcfl_W_hf_max              =   1.0287382645832E-02
(PID.TID 0000.0001) %MON pe_b_mean                    =  -6.8177832560158E-01
(PID.TID 0000.0001) %MON ke_max                       =   7.1235990208413E-04
(PID.TID 0000.0001) %MON ke_mean                      =   7.6770888130063E-07
(PID.TID 0000.0001) %MON ke_vol                       =   4.6183106694740E+12
(PID.TID 0000.0001) // =======================================================
(PID.TID 0000.0001) // End MONITOR dynamic field statistics
(PID.TID 0000.0001) // =======================================================
(PID.TID 0000.0001) // =======================================================
(PID.TID 0000.0001) // Begin OBCS MONITOR field statistics
(PID.TID 0000.0001) // =======================================================
(PID.TID 0000.0001) %MON obc_N_vVel_max               =  -4.1638889790963E-08
(PID.TID 0000.0001) %MON obc_N_vVel_min               =  -4.1638889790963E-08
(PID.TID 0000.0001) %MON obc_N_vVel_mean              =  -4.1638889790963E-08
(PID.TID 0000.0001) %MON obc_N_vVel_sd                =  -1.6960509462252E-29
(PID.TID 0000.0001) %MON obc_N_vVel_Int               =  -2.7481667262035E+00
(PID.TID 0000.0001) // =======================================================
(PID.TID 0000.0001) // End OBCS MONITOR field statistics
(PID.TID 0000.0001) // =======================================================
 cg2d: Sum(rhs),rhsMax =   3.00779467988434E+00  4.53042204521860E+02
(PID.TID 0000.0001)      cg2d_init_res =   4.38631506256319E-06
(PID.TID 0000.0001)      cg2d_iters(min,last) =      -1      76
(PID.TID 0000.0001)      cg2d_last_res =   9.59213663142014E-12
(PID.TID 0000.0001) // =======================================================
(PID.TID 0000.0001) // Begin MONITOR dynamic field statistics
(PID.TID 0000.0001) // =======================================================
(PID.TID 0000.0001) %MON time_tsnumber                =                  1283
(PID.TID 0000.0001) %MON time_secondsf                =   1.2830000000000E+05
(PID.TID 0000.0001) %MON dynstat_eta_max              =   5.7990196533473E+00
(PID.TID 0000.0001) %MON dynstat_eta_min              =  -1.4169348463298E+01
(PID.TID 0000.0001) %MON dynstat_eta_mean             =  -2.5234406157850E+00
(PID.TID 0000.0001) %MON dynstat_eta_sd               =   4.9408953496992E+00
(PID.TID 0000.0001) %MON dynstat_eta_del2             =   1.9058957876830E-01
(PID.TID 0000.0001) %MON dynstat_uvel_max             =   8.8864325298790E-03
(PID.TID 0000.0001) %MON dynstat_uvel_min             =  -4.0584872145343E-02
(PID.TID 0000.0001) %MON dynstat_uvel_mean            =   3.2371918495903E-09
(PID.TID 0000.0001) %MON dynstat_uvel_sd              =   1.1362525572253E-03
(PID.TID 0000.0001) %MON dynstat_uvel_del2            =   1.7448464910619E-06
(PID.TID 0000.0001) %MON dynstat_vvel_max             =   2.6617831137870E-02
(PID.TID 0000.0001) %MON dynstat_vvel_min             =  -1.0786637093279E-02
(PID.TID 0000.0001) %MON dynstat_vvel_mean            =  -1.3411689363886E-08
(PID.TID 0000.0001) %MON dynstat_vvel_sd              =   5.2501623520600E-04
(PID.TID 0000.0001) %MON dynstat_vvel_del2            =   1.3964928998422E-06
(PID.TID 0000.0001) %MON dynstat_wvel_max             =   1.6254117217760E-03
(PID.TID 0000.0001) %MON dynstat_wvel_min             =  -2.0622604288332E-03
(PID.TID 0000.0001) %MON dynstat_wvel_mean            =   3.5628205598193E-10
(PID.TID 0000.0001) %MON dynstat_wvel_sd              =   2.6717586641478E-05
(PID.TID 0000.0001) %MON dynstat_wvel_del2            =   1.0737850866613E-07
(PID.TID 0000.0001) %MON dynstat_theta_max            =   1.2000000000000E+00
(PID.TID 0000.0001) %MON dynstat_theta_min            =  -1.0000000000000E+00
(PID.TID 0000.0001) %MON dynstat_theta_mean           =   5.6503230447067E-01
(PID.TID 0000.0001) %MON dynstat_theta_sd             =   8.4889575374079E-01
(PID.TID 0000.0001) %MON dynstat_theta_del2           =   3.8811486815719E-06
(PID.TID 0000.0001) %MON dynstat_salt_max             =   3.4700000000000E+01
(PID.TID 0000.0001) %MON dynstat_salt_min             =   3.4000000000000E+01
(PID.TID 0000.0001) %MON dynstat_salt_mean            =   3.4497926976269E+01
(PID.TID 0000.0001) %MON dynstat_salt_sd              =   2.7009615495969E-01
(PID.TID 0000.0001) %MON dynstat_salt_del2            =   1.5363721963954E-06
(PID.TID 0000.0001) %MON advcfl_uvel_max              =   4.0584872145343E-03
(PID.TID 0000.0001) %MON advcfl_vvel_max              =   2.6617831137870E-03
(PID.TID 0000.0001) %MON advcfl_wvel_max              =   1.0311302144166E-02
(PID.TID 0000.0001) %MON advcfl_W_hf_max              =   1.0311302144166E-02
(PID.TID 0000.0001) %MON pe_b_mean                    =  -6.8177597849543E-01
(PID.TID 0000.0001) %MON ke_max                       =   7.1583426985621E-04
(PID.TID 0000.0001) %MON ke_mean                      =   7.7121683840957E-07
(PID.TID 0000.0001) %MON ke_vol                       =   4.6183107160514E+12
(PID.TID 0000.0001) // =======================================================
(PID.TID 0000.0001) // End MONITOR dynamic field statistics
(PID.TID 0000.0001) // =======================================================
(PID.TID 0000.0001) // =======================================================
(PID.TID 0000.0001) // Begin OBCS MONITOR field statistics
(PID.TID 0000.0001) // =======================================================
(PID.TID 0000.0001) %MON obc_N_vVel_max               =  -4.6517672378657E-08
(PID.TID 0000.0001) %MON obc_N_vVel_min               =  -4.6517672378657E-08
(PID.TID 0000.0001) %MON obc_N_vVel_mean              =  -4.6517672378657E-08
(PID.TID 0000.0001) %MON obc_N_vVel_sd                =   9.7295071111810E-15
(PID.TID 0000.0001) %MON obc_N_vVel_Int               =  -3.0701663769914E+00
(PID.TID 0000.0001) // =======================================================
(PID.TID 0000.0001) // End OBCS MONITOR field statistics
(PID.TID 0000.0001) // =======================================================
 cg2d: Sum(rhs),rhsMax =   3.00778542125896E+00  4.53042184682798E+02
(PID.TID 0000.0001)      cg2d_init_res =   4.39348098831927E-06
(PID.TID 0000.0001)      cg2d_iters(min,last) =      -1      76
(PID.TID 0000.0001)      cg2d_last_res =   9.61422690228341E-12
(PID.TID 0000.0001) // =======================================================
(PID.TID 0000.0001) // Begin MONITOR dynamic field statistics
(PID.TID 0000.0001) // =======================================================
(PID.TID 0000.0001) %MON time_tsnumber                =                  1284
(PID.TID 0000.0001) %MON time_secondsf                =   1.2840000000000E+05
(PID.TID 0000.0001) %MON dynstat_eta_max              =   5.7990225422304E+00
(PID.TID 0000.0001) %MON dynstat_eta_min              =  -1.4169331784093E+01
(PID.TID 0000.0001) %MON dynstat_eta_mean             =  -2.5234327376004E+00
(PID.TID 0000.0001) %MON dynstat_eta_sd               =   4.9408930844373E+00
(PID.TID 0000.0001) %MON dynstat_eta_del2             =   1.9058960237177E-01
(PID.TID 0000.0001) %MON dynstat_uvel_max             =   8.9067770346984E-03
(PID.TID 0000.0001) %MON dynstat_uvel_min             =  -4.0671760185421E-02
(PID.TID 0000.0001) %MON dynstat_uvel_mean            =   3.1927633426871E-09
(PID.TID 0000.0001) %MON dynstat_uvel_sd              =   1.1389176145908E-03
(PID.TID 0000.0001) %MON dynstat_uvel_del2            =   1.7490268035142E-06
(PID.TID 0000.0001) %MON dynstat_vvel_max             =   2.6659544640028E-02
(PID.TID 0000.0001) %MON dynstat_vvel_min             =  -1.0818746617515E-02
(PID.TID 0000.0001) %MON dynstat_vvel_mean            =  -1.6293643305083E-08
(PID.TID 0000.0001) %MON dynstat_vvel_sd              =   5.2605939828493E-04
(PID.TID 0000.0001) %MON dynstat_vvel_del2            =   1.3992066306749E-06
(PID.TID 0000.0001) %MON dynstat_wvel_max             =   1.6286191004086E-03
(PID.TID 0000.0001) %MON dynstat_wvel_min             =  -2.0670459609548E-03
(PID.TID 0000.0001) %MON dynstat_wvel_mean            =   3.6699093004359E-10
(PID.TID 0000.0001) %MON dynstat_wvel_sd              =   2.6769556512118E-05
(PID.TID 0000.0001) %MON dynstat_wvel_del2            =   1.0755622115518E-07
(PID.TID 0000.0001) %MON dynstat_theta_max            =   1.2000000000000E+00
(PID.TID 0000.0001) %MON dynstat_theta_min            =  -1.0000000000000E+00
(PID.TID 0000.0001) %MON dynstat_theta_mean           =   5.6503143658446E-01
(PID.TID 0000.0001) %MON dynstat_theta_sd             =   8.4889536111610E-01
(PID.TID 0000.0001) %MON dynstat_theta_del2           =   3.8884935323791E-06
(PID.TID 0000.0001) %MON dynstat_salt_max             =   3.4700000000000E+01
(PID.TID 0000.0001) %MON dynstat_salt_min             =   3.4000000000000E+01
(PID.TID 0000.0001) %MON dynstat_salt_mean            =   3.4497926629457E+01
(PID.TID 0000.0001) %MON dynstat_salt_sd              =   2.7009600665932E-01
(PID.TID 0000.0001) %MON dynstat_salt_del2            =   1.5392817097206E-06
(PID.TID 0000.0001) %MON advcfl_uvel_max              =   4.0671760185421E-03
(PID.TID 0000.0001) %MON advcfl_vvel_max              =   2.6659544640028E-03
(PID.TID 0000.0001) %MON advcfl_wvel_max              =   1.0335229804774E-02
(PID.TID 0000.0001) %MON advcfl_W_hf_max              =   1.0335229804774E-02
(PID.TID 0000.0001) %MON pe_b_mean                    =  -6.8177362662504E-01
(PID.TID 0000.0001) %MON ke_max                       =   7.1932293347811E-04
(PID.TID 0000.0001) %MON ke_mean                      =   7.7473978211275E-07
(PID.TID 0000.0001) %MON ke_vol                       =   4.6183107627422E+12
(PID.TID 0000.0001) // =======================================================
(PID.TID 0000.0001) // End MONITOR dynamic field statistics
(PID.TID 0000.0001) // =======================================================
(PID.TID 0000.0001) // =======================================================
(PID.TID 0000.0001) // Begin OBCS MONITOR field statistics
(PID.TID 0000.0001) // =======================================================
(PID.TID 0000.0001) %MON obc_N_vVel_max               =  -5.0196959535664E-08
(PID.TID 0000.0001) %MON obc_N_vVel_min               =  -5.0196959535664E-08
(PID.TID 0000.0001) %MON obc_N_vVel_mean              =  -5.0196959535664E-08
(PID.TID 0000.0001) %MON obc_N_vVel_sd                =  -3.1948866661451E-29
(PID.TID 0000.0001) %MON obc_N_vVel_Int               =  -3.3129993293538E+00
(PID.TID 0000.0001) // =======================================================
(PID.TID 0000.0001) // End OBCS MONITOR field statistics
(PID.TID 0000.0001) // =======================================================
 cg2d: Sum(rhs),rhsMax =   3.00777614270593E+00  4.53042164899230E+02
(PID.TID 0000.0001)      cg2d_init_res =   4.40054267702439E-06
(PID.TID 0000.0001)      cg2d_iters(min,last) =      -1      76
(PID.TID 0000.0001)      cg2d_last_res =   9.63605904573630E-12
(PID.TID 0000.0001) // =======================================================
(PID.TID 0000.0001) // Begin MONITOR dynamic field statistics
(PID.TID 0000.0001) // =======================================================
(PID.TID 0000.0001) %MON time_tsnumber                =                  1285
(PID.TID 0000.0001) %MON time_secondsf                =   1.2850000000000E+05
(PID.TID 0000.0001) %MON dynstat_eta_max              =   5.7990254341926E+00
(PID.TID 0000.0001) %MON dynstat_eta_min              =  -1.4169315071220E+01
(PID.TID 0000.0001) %MON dynstat_eta_mean             =  -2.5234248430069E+00
(PID.TID 0000.0001) %MON dynstat_eta_sd               =   4.9408908155215E+00
(PID.TID 0000.0001) %MON dynstat_eta_del2             =   1.9058962602067E-01
(PID.TID 0000.0001) %MON dynstat_uvel_max             =   8.9271519106848E-03
(PID.TID 0000.0001) %MON dynstat_uvel_min             =  -4.0758737942765E-02
(PID.TID 0000.0001) %MON dynstat_uvel_mean            =   3.1460724073722E-09
(PID.TID 0000.0001) %MON dynstat_uvel_sd              =   1.1415880144743E-03
(PID.TID 0000.0001) %MON dynstat_uvel_del2            =   1.7532163068174E-06
(PID.TID 0000.0001) %MON dynstat_vvel_max             =   2.6701269115001E-02
(PID.TID 0000.0001) %MON dynstat_vvel_min             =  -1.0850928403286E-02
(PID.TID 0000.0001) %MON dynstat_vvel_mean            =  -1.7838473010437E-08
(PID.TID 0000.0001) %MON dynstat_vvel_sd              =   5.2710451579577E-04
(PID.TID 0000.0001) %MON dynstat_vvel_del2            =   1.4019240392597E-06
(PID.TID 0000.0001) %MON dynstat_wvel_max             =   1.6318294103396E-03
(PID.TID 0000.0001) %MON dynstat_wvel_min             =  -2.0718330522298E-03
(PID.TID 0000.0001) %MON dynstat_wvel_mean            =   3.7773479832208E-10
(PID.TID 0000.0001) %MON dynstat_wvel_sd              =   2.6821666199235E-05
(PID.TID 0000.0001) %MON dynstat_wvel_del2            =   1.0773365541890E-07
(PID.TID 0000.0001) %MON dynstat_theta_max            =   1.2000000000000E+00
(PID.TID 0000.0001) %MON dynstat_theta_min            =  -1.0000000000000E+00
(PID.TID 0000.0001) %MON dynstat_theta_mean           =   5.6503056719692E-01
(PID.TID 0000.0001) %MON dynstat_theta_sd             =   8.4889496777062E-01
(PID.TID 0000.0001) %MON dynstat_theta_del2           =   3.8958471657300E-06
(PID.TID 0000.0001) %MON dynstat_salt_max             =   3.4700000000000E+01
(PID.TID 0000.0001) %MON dynstat_salt_min             =   3.4000000000000E+01
(PID.TID 0000.0001) %MON dynstat_salt_mean            =   3.4497926282042E+01
(PID.TID 0000.0001) %MON dynstat_salt_sd              =   2.7009585808756E-01
(PID.TID 0000.0001) %MON dynstat_salt_del2            =   1.5421947390945E-06
(PID.TID 0000.0001) %MON advcfl_uvel_max              =   4.0758737942765E-03
(PID.TID 0000.0001) %MON advcfl_vvel_max              =   2.6701269115001E-03
(PID.TID 0000.0001) %MON advcfl_wvel_max              =   1.0359165261149E-02
(PID.TID 0000.0001) %MON advcfl_W_hf_max              =   1.0359165261149E-02
(PID.TID 0000.0001) %MON pe_b_mean                    =  -6.8177127027146E-01
(PID.TID 0000.0001) %MON ke_max                       =   7.2282594052875E-04
(PID.TID 0000.0001) %MON ke_mean                      =   7.7827779742234E-07
(PID.TID 0000.0001) %MON ke_vol                       =   4.6183108095387E+12
(PID.TID 0000.0001) // =======================================================
(PID.TID 0000.0001) // End MONITOR dynamic field statistics
(PID.TID 0000.0001) // =======================================================
(PID.TID 0000.0001) // =======================================================
(PID.TID 0000.0001) // Begin OBCS MONITOR field statistics
(PID.TID 0000.0001) // =======================================================
(PID.TID 0000.0001) %MON obc_N_vVel_max               =  -5.2620237912516E-08
(PID.TID 0000.0001) %MON obc_N_vVel_min               =  -5.2620237912518E-08
(PID.TID 0000.0001) %MON obc_N_vVel_mean              =  -5.2620237912516E-08
(PID.TID 0000.0001) %MON obc_N_vVel_sd                =   1.1356881526354E-14
(PID.TID 0000.0001) %MON obc_N_vVel_Int               =  -3.4729357022261E+00
(PID.TID 0000.0001) // =======================================================
(PID.TID 0000.0001) // End OBCS MONITOR field statistics
(PID.TID 0000.0001) // =======================================================
 cg2d: Sum(rhs),rhsMax =   3.00776684556248E+00  4.53042145222372E+02
(PID.TID 0000.0001)      cg2d_init_res =   4.40752395719824E-06
(PID.TID 0000.0001)      cg2d_iters(min,last) =      -1      76
(PID.TID 0000.0001)      cg2d_last_res =   9.65761714128969E-12
(PID.TID 0000.0001) // =======================================================
(PID.TID 0000.0001) // Begin MONITOR dynamic field statistics
(PID.TID 0000.0001) // =======================================================
(PID.TID 0000.0001) %MON time_tsnumber                =                  1286
(PID.TID 0000.0001) %MON time_secondsf                =   1.2860000000000E+05
(PID.TID 0000.0001) %MON dynstat_eta_max              =   5.7990283268512E+00
(PID.TID 0000.0001) %MON dynstat_eta_min              =  -1.4169298327311E+01
(PID.TID 0000.0001) %MON dynstat_eta_mean             =  -2.5234169334118E+00
(PID.TID 0000.0001) %MON dynstat_eta_sd               =   4.9408885434242E+00
(PID.TID 0000.0001) %MON dynstat_eta_del2             =   1.9058964971589E-01
(PID.TID 0000.0001) %MON dynstat_uvel_max             =   8.9475570646362E-03
(PID.TID 0000.0001) %MON dynstat_uvel_min             =  -4.0845805455770E-02
(PID.TID 0000.0001) %MON dynstat_uvel_mean            =   3.0981563123853E-09
(PID.TID 0000.0001) %MON dynstat_uvel_sd              =   1.1442637640003E-03
(PID.TID 0000.0001) %MON dynstat_uvel_del2            =   1.7574150160008E-06
(PID.TID 0000.0001) %MON dynstat_vvel_max             =   2.6743004476458E-02
(PID.TID 0000.0001) %MON dynstat_vvel_min             =  -1.0883182368378E-02
(PID.TID 0000.0001) %MON dynstat_vvel_mean            =  -1.8027723413954E-08
(PID.TID 0000.0001) %MON dynstat_vvel_sd              =   5.2815164229576E-04
(PID.TID 0000.0001) %MON dynstat_vvel_del2            =   1.4046454606827E-06
(PID.TID 0000.0001) %MON dynstat_wvel_max             =   1.6350426454665E-03
(PID.TID 0000.0001) %MON dynstat_wvel_min             =  -2.0766216284713E-03
(PID.TID 0000.0001) %MON dynstat_wvel_mean            =   3.8833311050388E-10
(PID.TID 0000.0001) %MON dynstat_wvel_sd              =   2.6874184954890E-05
(PID.TID 0000.0001) %MON dynstat_wvel_del2            =   1.0791228514251E-07
(PID.TID 0000.0001) %MON dynstat_theta_max            =   1.2000000000000E+00
(PID.TID 0000.0001) %MON dynstat_theta_min            =  -1.0000000000000E+00
(PID.TID 0000.0001) %MON dynstat_theta_mean           =   5.6502969630626E-01
(PID.TID 0000.0001) %MON dynstat_theta_sd             =   8.4889457370223E-01
(PID.TID 0000.0001) %MON dynstat_theta_del2           =   3.9032090851989E-06
(PID.TID 0000.0001) %MON dynstat_salt_max             =   3.4700000000000E+01
(PID.TID 0000.0001) %MON dynstat_salt_min             =   3.4000000000000E+01
(PID.TID 0000.0001) %MON dynstat_salt_mean            =   3.4497925934024E+01
(PID.TID 0000.0001) %MON dynstat_salt_sd              =   2.7009570924391E-01
(PID.TID 0000.0001) %MON dynstat_salt_del2            =   1.5451111709115E-06
(PID.TID 0000.0001) %MON advcfl_uvel_max              =   4.0845805455770E-03
(PID.TID 0000.0001) %MON advcfl_vvel_max              =   2.6743004476458E-03
(PID.TID 0000.0001) %MON advcfl_wvel_max              =   1.0383108142356E-02
(PID.TID 0000.0001) %MON advcfl_W_hf_max              =   1.0383108142356E-02
(PID.TID 0000.0001) %MON pe_b_mean                    =  -6.8176890971816E-01
(PID.TID 0000.0001) %MON ke_max                       =   7.2634333872039E-04
(PID.TID 0000.0001) %MON ke_mean                      =   7.8183096926775E-07
(PID.TID 0000.0001) %MON ke_vol                       =   4.6183108564325E+12
(PID.TID 0000.0001) // =======================================================
(PID.TID 0000.0001) // End MONITOR dynamic field statistics
(PID.TID 0000.0001) // =======================================================
(PID.TID 0000.0001) // =======================================================
(PID.TID 0000.0001) // Begin OBCS MONITOR field statistics
(PID.TID 0000.0001) // =======================================================
(PID.TID 0000.0001) %MON obc_N_vVel_max               =  -5.3753900376976E-08
(PID.TID 0000.0001) %MON obc_N_vVel_min               =  -5.3753900376978E-08
(PID.TID 0000.0001) %MON obc_N_vVel_mean              =  -5.3753900376976E-08
(PID.TID 0000.0001) %MON obc_N_vVel_sd                =   1.0986160316453E-14
(PID.TID 0000.0001) %MON obc_N_vVel_Int               =  -3.5477574248804E+00
(PID.TID 0000.0001) // =======================================================
(PID.TID 0000.0001) // End OBCS MONITOR field statistics
(PID.TID 0000.0001) // =======================================================
 cg2d: Sum(rhs),rhsMax =   3.00775753120195E+00  4.53042125700061E+02
(PID.TID 0000.0001)      cg2d_init_res =   4.41444856692863E-06
(PID.TID 0000.0001)      cg2d_iters(min,last) =      -1      76
(PID.TID 0000.0001)      cg2d_last_res =   9.67888787593821E-12
(PID.TID 0000.0001) // =======================================================
(PID.TID 0000.0001) // Begin MONITOR dynamic field statistics
(PID.TID 0000.0001) // =======================================================
(PID.TID 0000.0001) %MON time_tsnumber                =                  1287
(PID.TID 0000.0001) %MON time_secondsf                =   1.2870000000000E+05
(PID.TID 0000.0001) %MON dynstat_eta_max              =   5.7990312178437E+00
(PID.TID 0000.0001) %MON dynstat_eta_min              =  -1.4169281554973E+01
(PID.TID 0000.0001) %MON dynstat_eta_mean             =  -2.5234090102335E+00
(PID.TID 0000.0001) %MON dynstat_eta_sd               =   4.9408862686000E+00
(PID.TID 0000.0001) %MON dynstat_eta_del2             =   1.9058967345824E-01
(PID.TID 0000.0001) %MON dynstat_uvel_max             =   8.9679924028578E-03
(PID.TID 0000.0001) %MON dynstat_uvel_min             =  -4.0932962762731E-02
(PID.TID 0000.0001) %MON dynstat_uvel_mean            =   3.0500627007957E-09
(PID.TID 0000.0001) %MON dynstat_uvel_sd              =   1.1469448703064E-03
(PID.TID 0000.0001) %MON dynstat_uvel_del2            =   1.7616229463392E-06
(PID.TID 0000.0001) %MON dynstat_vvel_max             =   2.6784750635094E-02
(PID.TID 0000.0001) %MON dynstat_vvel_min             =  -1.0915508408900E-02
(PID.TID 0000.0001) %MON dynstat_vvel_mean            =  -1.6867319619665E-08
(PID.TID 0000.0001) %MON dynstat_vvel_sd              =   5.2920082733890E-04
(PID.TID 0000.0001) %MON dynstat_vvel_del2            =   1.4073711921660E-06
(PID.TID 0000.0001) %MON dynstat_wvel_max             =   1.6382587996690E-03
(PID.TID 0000.0001) %MON dynstat_wvel_min             =  -2.0814116188824E-03
(PID.TID 0000.0001) %MON dynstat_wvel_mean            =   3.9860919762716E-10
(PID.TID 0000.0001) %MON dynstat_wvel_sd              =   2.6927353932008E-05
(PID.TID 0000.0001) %MON dynstat_wvel_del2            =   1.0809350031249E-07
(PID.TID 0000.0001) %MON dynstat_theta_max            =   1.2000000000000E+00
(PID.TID 0000.0001) %MON dynstat_theta_min            =  -1.0000000000000E+00
(PID.TID 0000.0001) %MON dynstat_theta_mean           =   5.6502882391068E-01
(PID.TID 0000.0001) %MON dynstat_theta_sd             =   8.4889417890802E-01
(PID.TID 0000.0001) %MON dynstat_theta_del2           =   3.9105787987106E-06
(PID.TID 0000.0001) %MON dynstat_salt_max             =   3.4700000000000E+01
(PID.TID 0000.0001) %MON dynstat_salt_min             =   3.4000000000000E+01
(PID.TID 0000.0001) %MON dynstat_salt_mean            =   3.4497925585402E+01
(PID.TID 0000.0001) %MON dynstat_salt_sd              =   2.7009556012744E-01
(PID.TID 0000.0001) %MON dynstat_salt_del2            =   1.5480308738986E-06
(PID.TID 0000.0001) %MON advcfl_uvel_max              =   4.0932962762731E-03
(PID.TID 0000.0001) %MON advcfl_vvel_max              =   2.6784750635094E-03
(PID.TID 0000.0001) %MON advcfl_wvel_max              =   1.0407058094412E-02
(PID.TID 0000.0001) %MON advcfl_W_hf_max              =   1.0407058094412E-02
(PID.TID 0000.0001) %MON pe_b_mean                    =  -6.8176654524588E-01
(PID.TID 0000.0001) %MON ke_max                       =   7.2987517589519E-04
(PID.TID 0000.0001) %MON ke_mean                      =   7.8539938035047E-07
(PID.TID 0000.0001) %MON ke_vol                       =   4.6183109034155E+12
(PID.TID 0000.0001) // =======================================================
(PID.TID 0000.0001) // End MONITOR dynamic field statistics
(PID.TID 0000.0001) // =======================================================
(PID.TID 0000.0001) // =======================================================
(PID.TID 0000.0001) // Begin OBCS MONITOR field statistics
(PID.TID 0000.0001) // =======================================================
(PID.TID 0000.0001) %MON obc_N_vVel_max               =  -5.3587670657818E-08
(PID.TID 0000.0001) %MON obc_N_vVel_min               =  -5.3587670657819E-08
(PID.TID 0000.0001) %MON obc_N_vVel_mean              =  -5.3587670657818E-08
(PID.TID 0000.0001) %MON obc_N_vVel_sd                =   1.4403833450617E-14
(PID.TID 0000.0001) %MON obc_N_vVel_Int               =  -3.5367862634160E+00
(PID.TID 0000.0001) // =======================================================
(PID.TID 0000.0001) // End OBCS MONITOR field statistics
(PID.TID 0000.0001) // =======================================================
 cg2d: Sum(rhs),rhsMax =   3.00774820100738E+00  4.53042106376028E+02
(PID.TID 0000.0001)      cg2d_init_res =   4.42134083413483E-06
(PID.TID 0000.0001)      cg2d_iters(min,last) =      -1      76
(PID.TID 0000.0001)      cg2d_last_res =   9.69986370901519E-12
(PID.TID 0000.0001) // =======================================================
(PID.TID 0000.0001) // Begin MONITOR dynamic field statistics
(PID.TID 0000.0001) // =======================================================
(PID.TID 0000.0001) %MON time_tsnumber                =                  1288
(PID.TID 0000.0001) %MON time_secondsf                =   1.2880000000000E+05
(PID.TID 0000.0001) %MON dynstat_eta_max              =   5.7990341048518E+00
(PID.TID 0000.0001) %MON dynstat_eta_min              =  -1.4169264756746E+01
(PID.TID 0000.0001) %MON dynstat_eta_mean             =  -2.5234010748761E+00
(PID.TID 0000.0001) %MON dynstat_eta_sd               =   4.9408839914765E+00
(PID.TID 0000.0001) %MON dynstat_eta_del2             =   1.9058969724839E-01
(PID.TID 0000.0001) %MON dynstat_uvel_max             =   8.9884578301964E-03
(PID.TID 0000.0001) %MON dynstat_uvel_min             =  -4.1020209901952E-02
(PID.TID 0000.0001) %MON dynstat_uvel_mean            =   3.0028293421921E-09
(PID.TID 0000.0001) %MON dynstat_uvel_sd              =   1.1496313405188E-03
(PID.TID 0000.0001) %MON dynstat_uvel_del2            =   1.7658401133318E-06
(PID.TID 0000.0001) %MON dynstat_vvel_max             =   2.6826507498602E-02
(PID.TID 0000.0001) %MON dynstat_vvel_min             =  -1.0947906449413E-02
(PID.TID 0000.0001) %MON dynstat_vvel_mean            =  -1.4387271681525E-08
(PID.TID 0000.0001) %MON dynstat_vvel_sd              =   5.3025211203271E-04
(PID.TID 0000.0001) %MON dynstat_vvel_del2            =   1.4101014711132E-06
(PID.TID 0000.0001) %MON dynstat_wvel_max             =   1.6414778668140E-03
(PID.TID 0000.0001) %MON dynstat_wvel_min             =  -2.0862029558082E-03
(PID.TID 0000.0001) %MON dynstat_wvel_mean            =   4.0839378345146E-10
(PID.TID 0000.0001) %MON dynstat_wvel_sd              =   2.6981369695266E-05
(PID.TID 0000.0001) %MON dynstat_wvel_del2            =   1.0827850958006E-07
(PID.TID 0000.0001) %MON dynstat_theta_max            =   1.2000000000000E+00
(PID.TID 0000.0001) %MON dynstat_theta_min            =  -1.0000000000000E+00
(PID.TID 0000.0001) %MON dynstat_theta_mean           =   5.6502795000836E-01
(PID.TID 0000.0001) %MON dynstat_theta_sd             =   8.4889378338510E-01
(PID.TID 0000.0001) %MON dynstat_theta_del2           =   3.9179558653545E-06
(PID.TID 0000.0001) %MON dynstat_salt_max             =   3.4700000000000E+01
(PID.TID 0000.0001) %MON dynstat_salt_min             =   3.4000000000000E+01
(PID.TID 0000.0001) %MON dynstat_salt_mean            =   3.4497925236175E+01
(PID.TID 0000.0001) %MON dynstat_salt_sd              =   2.7009541073732E-01
(PID.TID 0000.0001) %MON dynstat_salt_del2            =   1.5509537399770E-06
(PID.TID 0000.0001) %MON advcfl_uvel_max              =   4.1020209901952E-03
(PID.TID 0000.0001) %MON advcfl_vvel_max              =   2.6826507498602E-03
(PID.TID 0000.0001) %MON advcfl_wvel_max              =   1.0431014779041E-02
(PID.TID 0000.0001) %MON advcfl_W_hf_max              =   1.0431014779041E-02
(PID.TID 0000.0001) %MON pe_b_mean                    =  -6.8176417712742E-01
(PID.TID 0000.0001) %MON ke_max                       =   7.3342149815189E-04
(PID.TID 0000.0001) %MON ke_mean                      =   7.8898310926626E-07
(PID.TID 0000.0001) %MON ke_vol                       =   4.6183109504792E+12
(PID.TID 0000.0001) // =======================================================
(PID.TID 0000.0001) // End MONITOR dynamic field statistics
(PID.TID 0000.0001) // =======================================================
(PID.TID 0000.0001) // =======================================================
(PID.TID 0000.0001) // Begin OBCS MONITOR field statistics
(PID.TID 0000.0001) // =======================================================
(PID.TID 0000.0001) %MON obc_N_vVel_max               =  -5.2134613771436E-08
(PID.TID 0000.0001) %MON obc_N_vVel_min               =  -5.2134613771437E-08
(PID.TID 0000.0001) %MON obc_N_vVel_mean              =  -5.2134613771437E-08
(PID.TID 0000.0001) %MON obc_N_vVel_sd                =  -2.1299244440967E-28
(PID.TID 0000.0001) %MON obc_N_vVel_Int               =  -3.4408845089148E+00
(PID.TID 0000.0001) // =======================================================
(PID.TID 0000.0001) // End OBCS MONITOR field statistics
(PID.TID 0000.0001) // =======================================================
 cg2d: Sum(rhs),rhsMax =   3.00773885634581E+00  4.53042087289276E+02
(PID.TID 0000.0001)      cg2d_init_res =   4.42822442155471E-06
(PID.TID 0000.0001)      cg2d_iters(min,last) =      -1      76
(PID.TID 0000.0001)      cg2d_last_res =   9.72054613430458E-12
(PID.TID 0000.0001) // =======================================================
(PID.TID 0000.0001) // Begin MONITOR dynamic field statistics
(PID.TID 0000.0001) // =======================================================
(PID.TID 0000.0001) %MON time_tsnumber                =                  1289
(PID.TID 0000.0001) %MON time_secondsf                =   1.2890000000000E+05
(PID.TID 0000.0001) %MON dynstat_eta_max              =   5.7990369856710E+00
(PID.TID 0000.0001) %MON dynstat_eta_min              =  -1.4169247935047E+01
(PID.TID 0000.0001) %MON dynstat_eta_mean             =  -2.5233931287036E+00
(PID.TID 0000.0001) %MON dynstat_eta_sd               =   4.9408817124476E+00
(PID.TID 0000.0001) %MON dynstat_eta_del2             =   1.9058972108690E-01
(PID.TID 0000.0001) %MON dynstat_uvel_max             =   9.0089532503370E-03
(PID.TID 0000.0001) %MON dynstat_uvel_min             =  -4.1107546912094E-02
(PID.TID 0000.0001) %MON dynstat_uvel_mean            =   2.9574661464431E-09
(PID.TID 0000.0001) %MON dynstat_uvel_sd              =   1.1523231817776E-03
(PID.TID 0000.0001) %MON dynstat_uvel_del2            =   1.7700665326358E-06
(PID.TID 0000.0001) %MON dynstat_vvel_max             =   2.6868274971659E-02
(PID.TID 0000.0001) %MON dynstat_vvel_min             =  -1.0980376416732E-02
(PID.TID 0000.0001) %MON dynstat_vvel_mean            =  -1.0640954608050E-08
(PID.TID 0000.0001) %MON dynstat_vvel_sd              =   5.3130552626915E-04
(PID.TID 0000.0001) %MON dynstat_vvel_del2            =   1.4128364574099E-06
(PID.TID 0000.0001) %MON dynstat_wvel_max             =   1.6446998407660E-03
(PID.TID 0000.0001) %MON dynstat_wvel_min             =  -2.0909955689815E-03
(PID.TID 0000.0001) %MON dynstat_wvel_mean            =   4.1752773208883E-10
(PID.TID 0000.0001) %MON dynstat_wvel_sd              =   2.7036371064859E-05
(PID.TID 0000.0001) %MON dynstat_wvel_del2            =   1.0846825468731E-07
(PID.TID 0000.0001) %MON dynstat_theta_max            =   1.2000000000000E+00
(PID.TID 0000.0001) %MON dynstat_theta_min            =  -1.0000000000000E+00
(PID.TID 0000.0001) %MON dynstat_theta_mean           =   5.6502707459750E-01
(PID.TID 0000.0001) %MON dynstat_theta_sd             =   8.4889338713071E-01
(PID.TID 0000.0001) %MON dynstat_theta_del2           =   3.9253399753258E-06
(PID.TID 0000.0001) %MON dynstat_salt_max             =   3.4700000000000E+01
(PID.TID 0000.0001) %MON dynstat_salt_min             =   3.4000000000000E+01
(PID.TID 0000.0001) %MON dynstat_salt_mean            =   3.4497924886342E+01
(PID.TID 0000.0001) %MON dynstat_salt_sd              =   2.7009526107260E-01
(PID.TID 0000.0001) %MON dynstat_salt_del2            =   1.5538796826411E-06
(PID.TID 0000.0001) %MON advcfl_uvel_max              =   4.1107546912094E-03
(PID.TID 0000.0001) %MON advcfl_vvel_max              =   2.6868274971659E-03
(PID.TID 0000.0001) %MON advcfl_wvel_max              =   1.0454977844908E-02
(PID.TID 0000.0001) %MON advcfl_W_hf_max              =   1.0454977844908E-02
(PID.TID 0000.0001) %MON pe_b_mean                    =  -6.8176180562281E-01
(PID.TID 0000.0001) %MON ke_max                       =   7.3698234926034E-04
(PID.TID 0000.0001) %MON ke_mean                      =   7.9258222901875E-07
(PID.TID 0000.0001) %MON ke_vol                       =   4.6183109976152E+12
(PID.TID 0000.0001) // =======================================================
(PID.TID 0000.0001) // End MONITOR dynamic field statistics
(PID.TID 0000.0001) // =======================================================
(PID.TID 0000.0001) // =======================================================
(PID.TID 0000.0001) // Begin OBCS MONITOR field statistics
(PID.TID 0000.0001) // =======================================================
(PID.TID 0000.0001) %MON obc_N_vVel_max               =  -4.9430703612053E-08
(PID.TID 0000.0001) %MON obc_N_vVel_min               =  -4.9430703612055E-08
(PID.TID 0000.0001) %MON obc_N_vVel_mean              =  -4.9430703612053E-08
(PID.TID 0000.0001) %MON obc_N_vVel_sd                =   8.4260003245841E-15
(PID.TID 0000.0001) %MON obc_N_vVel_Int               =  -3.2624264383955E+00
(PID.TID 0000.0001) // =======================================================
(PID.TID 0000.0001) // End OBCS MONITOR field statistics
(PID.TID 0000.0001) // =======================================================
 cg2d: Sum(rhs),rhsMax =   3.00772949854248E+00  4.53042068473519E+02
(PID.TID 0000.0001)      cg2d_init_res =   4.43512096044877E-06
(PID.TID 0000.0001)      cg2d_iters(min,last) =      -1      76
(PID.TID 0000.0001)      cg2d_last_res =   9.74094154692139E-12
(PID.TID 0000.0001) // =======================================================
(PID.TID 0000.0001) // Begin MONITOR dynamic field statistics
(PID.TID 0000.0001) // =======================================================
(PID.TID 0000.0001) %MON time_tsnumber                =                  1290
(PID.TID 0000.0001) %MON time_secondsf                =   1.2900000000000E+05
(PID.TID 0000.0001) %MON dynstat_eta_max              =   5.7990398582264E+00
(PID.TID 0000.0001) %MON dynstat_eta_min              =  -1.4169231092126E+01
(PID.TID 0000.0001) %MON dynstat_eta_mean             =  -2.5233851730157E+00
(PID.TID 0000.0001) %MON dynstat_eta_sd               =   4.9408794318665E+00
(PID.TID 0000.0001) %MON dynstat_eta_del2             =   1.9058974497424E-01
(PID.TID 0000.0001) %MON dynstat_uvel_max             =   9.0294785659513E-03
(PID.TID 0000.0001) %MON dynstat_uvel_min             =  -4.1194973832109E-02
(PID.TID 0000.0001) %MON dynstat_uvel_mean            =   2.9149364533133E-09
(PID.TID 0000.0001) %MON dynstat_uvel_sd              =   1.1550204012554E-03
(PID.TID 0000.0001) %MON dynstat_uvel_del2            =   1.7743022203579E-06
(PID.TID 0000.0001) %MON dynstat_vvel_max             =   2.6910052956213E-02
(PID.TID 0000.0001) %MON dynstat_vvel_min             =  -1.1012918240157E-02
(PID.TID 0000.0001) %MON dynstat_vvel_mean            =  -5.7039746509761E-09
(PID.TID 0000.0001) %MON dynstat_vvel_sd              =   5.3236108680935E-04
(PID.TID 0000.0001) %MON dynstat_vvel_del2            =   1.4155762213641E-06
(PID.TID 0000.0001) %MON dynstat_wvel_max             =   1.6479247153663E-03
(PID.TID 0000.0001) %MON dynstat_wvel_min             =  -2.0957893872899E-03
(PID.TID 0000.0001) %MON dynstat_wvel_mean            =   4.2586486659951E-10
(PID.TID 0000.0001) %MON dynstat_wvel_sd              =   2.7092430220626E-05
(PID.TID 0000.0001) %MON dynstat_wvel_del2            =   1.0866334396844E-07
(PID.TID 0000.0001) %MON dynstat_theta_max            =   1.2000000000000E+00
(PID.TID 0000.0001) %MON dynstat_theta_min            =  -1.0000000000000E+00
(PID.TID 0000.0001) %MON dynstat_theta_mean           =   5.6502619767626E-01
(PID.TID 0000.0001) %MON dynstat_theta_sd             =   8.4889299014228E-01
(PID.TID 0000.0001) %MON dynstat_theta_del2           =   3.9327309504532E-06
(PID.TID 0000.0001) %MON dynstat_salt_max             =   3.4700000000000E+01
(PID.TID 0000.0001) %MON dynstat_salt_min             =   3.4000000000000E+01
(PID.TID 0000.0001) %MON dynstat_salt_mean            =   3.4497924535903E+01
(PID.TID 0000.0001) %MON dynstat_salt_sd              =   2.7009511113249E-01
(PID.TID 0000.0001) %MON dynstat_salt_del2            =   1.5568086517075E-06
(PID.TID 0000.0001) %MON advcfl_uvel_max              =   4.1194973832109E-03
(PID.TID 0000.0001) %MON advcfl_vvel_max              =   2.6910052956213E-03
(PID.TID 0000.0001) %MON advcfl_wvel_max              =   1.0478946936450E-02
(PID.TID 0000.0001) %MON advcfl_W_hf_max              =   1.0478946936450E-02
(PID.TID 0000.0001) %MON pe_b_mean                    =  -6.8175943097463E-01
(PID.TID 0000.0001) %MON ke_max                       =   7.4055777310648E-04
(PID.TID 0000.0001) %MON ke_mean                      =   7.9619680596243E-07
(PID.TID 0000.0001) %MON ke_vol                       =   4.6183110448155E+12
(PID.TID 0000.0001) // =======================================================
(PID.TID 0000.0001) // End MONITOR dynamic field statistics
(PID.TID 0000.0001) // =======================================================
(PID.TID 0000.0001) // =======================================================
(PID.TID 0000.0001) // Begin OBCS MONITOR field statistics
(PID.TID 0000.0001) // =======================================================
(PID.TID 0000.0001) %MON obc_N_vVel_max               =  -4.5534009240922E-08
(PID.TID 0000.0001) %MON obc_N_vVel_min               =  -4.5534009240923E-08
(PID.TID 0000.0001) %MON obc_N_vVel_mean              =  -4.5534009240922E-08
(PID.TID 0000.0001) %MON obc_N_vVel_sd                =   1.1783018260144E-14
(PID.TID 0000.0001) %MON obc_N_vVel_Int               =  -3.0052446099009E+00
(PID.TID 0000.0001) // =======================================================
(PID.TID 0000.0001) // End OBCS MONITOR field statistics
(PID.TID 0000.0001) // =======================================================
 cg2d: Sum(rhs),rhsMax =   3.00772012885621E+00  4.53042049956702E+02
(PID.TID 0000.0001)      cg2d_init_res =   4.44204961750998E-06
(PID.TID 0000.0001)      cg2d_iters(min,last) =      -1      76
(PID.TID 0000.0001)      cg2d_last_res =   9.76106068621660E-12
(PID.TID 0000.0001) // =======================================================
(PID.TID 0000.0001) // Begin MONITOR dynamic field statistics
(PID.TID 0000.0001) // =======================================================
(PID.TID 0000.0001) %MON time_tsnumber                =                  1291
(PID.TID 0000.0001) %MON time_secondsf                =   1.2910000000000E+05
(PID.TID 0000.0001) %MON dynstat_eta_max              =   5.7990427213541E+00
(PID.TID 0000.0001) %MON dynstat_eta_min              =  -1.4169214230035E+01
(PID.TID 0000.0001) %MON dynstat_eta_mean             =  -2.5233772090242E+00
(PID.TID 0000.0001) %MON dynstat_eta_sd               =   4.9408771500394E+00
(PID.TID 0000.0001) %MON dynstat_eta_del2             =   1.9058976891077E-01
(PID.TID 0000.0001) %MON dynstat_uvel_max             =   9.0500336786477E-03
(PID.TID 0000.0001) %MON dynstat_uvel_min             =  -4.1282490701212E-02
(PID.TID 0000.0001) %MON dynstat_uvel_mean            =   2.8761449850136E-09
(PID.TID 0000.0001) %MON dynstat_uvel_sd              =   1.1577230061580E-03
(PID.TID 0000.0001) %MON dynstat_uvel_del2            =   1.7785471930108E-06
(PID.TID 0000.0001) %MON dynstat_vvel_max             =   2.6951841351541E-02
(PID.TID 0000.0001) %MON dynstat_vvel_min             =  -1.1045531851144E-02
(PID.TID 0000.0001) %MON dynstat_vvel_mean            =   3.2735407693682E-10
(PID.TID 0000.0001) %MON dynstat_vvel_sd              =   5.3341879635021E-04
(PID.TID 0000.0001) %MON dynstat_vvel_del2            =   1.4183207382572E-06
(PID.TID 0000.0001) %MON dynstat_wvel_max             =   1.6511524844160E-03
(PID.TID 0000.0001) %MON dynstat_wvel_min             =  -2.1005843387333E-03
(PID.TID 0000.0001) %MON dynstat_wvel_mean            =   4.3327436864737E-10
(PID.TID 0000.0001) %MON dynstat_wvel_sd              =   2.7149548620039E-05
(PID.TID 0000.0001) %MON dynstat_wvel_del2            =   1.0886400921249E-07
(PID.TID 0000.0001) %MON dynstat_theta_max            =   1.2000000000000E+00
(PID.TID 0000.0001) %MON dynstat_theta_min            =  -1.0000000000000E+00
(PID.TID 0000.0001) %MON dynstat_theta_mean           =   5.6502531924275E-01
(PID.TID 0000.0001) %MON dynstat_theta_sd             =   8.4889259241732E-01
(PID.TID 0000.0001) %MON dynstat_theta_del2           =   3.9401287520091E-06
(PID.TID 0000.0001) %MON dynstat_salt_max             =   3.4700000000000E+01
(PID.TID 0000.0001) %MON dynstat_salt_min             =   3.4000000000000E+01
(PID.TID 0000.0001) %MON dynstat_salt_mean            =   3.4497924184856E+01
(PID.TID 0000.0001) %MON dynstat_salt_sd              =   2.7009496091637E-01
(PID.TID 0000.0001) %MON dynstat_salt_del2            =   1.5597406368780E-06
(PID.TID 0000.0001) %MON advcfl_uvel_max              =   4.1282490701212E-03
(PID.TID 0000.0001) %MON advcfl_vvel_max              =   2.6951841351541E-03
(PID.TID 0000.0001) %MON advcfl_wvel_max              =   1.0502921693666E-02
(PID.TID 0000.0001) %MON advcfl_W_hf_max              =   1.0502921693666E-02
(PID.TID 0000.0001) %MON pe_b_mean                    =  -6.8175705340360E-01
(PID.TID 0000.0001) %MON ke_max                       =   7.4414781367381E-04
(PID.TID 0000.0001) %MON ke_mean                      =   7.9982689923585E-07
(PID.TID 0000.0001) %MON ke_vol                       =   4.6183110920723E+12
(PID.TID 0000.0001) // =======================================================
(PID.TID 0000.0001) // End MONITOR dynamic field statistics
(PID.TID 0000.0001) // =======================================================
(PID.TID 0000.0001) // =======================================================
(PID.TID 0000.0001) // Begin OBCS MONITOR field statistics
(PID.TID 0000.0001) // =======================================================
(PID.TID 0000.0001) %MON obc_N_vVel_max               =  -4.0523475847675E-08
(PID.TID 0000.0001) %MON obc_N_vVel_min               =  -4.0523475847676E-08
(PID.TID 0000.0001) %MON obc_N_vVel_mean              =  -4.0523475847676E-08
(PID.TID 0000.0001) %MON obc_N_vVel_sd                =  -3.3526588471893E-29
(PID.TID 0000.0001) %MON obc_N_vVel_Int               =  -2.6745494059466E+00
(PID.TID 0000.0001) // =======================================================
(PID.TID 0000.0001) // End OBCS MONITOR field statistics
(PID.TID 0000.0001) // =======================================================
 cg2d: Sum(rhs),rhsMax =   3.00771074845484E+00  4.53042031760703E+02
(PID.TID 0000.0001)      cg2d_init_res =   4.44902513116153E-06
(PID.TID 0000.0001)      cg2d_iters(min,last) =      -1      76
(PID.TID 0000.0001)      cg2d_last_res =   9.78093098626173E-12
(PID.TID 0000.0001) // =======================================================
(PID.TID 0000.0001) // Begin MONITOR dynamic field statistics
(PID.TID 0000.0001) // =======================================================
(PID.TID 0000.0001) %MON time_tsnumber                =                  1292
(PID.TID 0000.0001) %MON time_secondsf                =   1.2920000000000E+05
(PID.TID 0000.0001) %MON dynstat_eta_max              =   5.7990455743377E+00
(PID.TID 0000.0001) %MON dynstat_eta_min              =  -1.4169197350575E+01
(PID.TID 0000.0001) %MON dynstat_eta_mean             =  -2.5233692378305E+00
(PID.TID 0000.0001) %MON dynstat_eta_sd               =   4.9408748672195E+00
(PID.TID 0000.0001) %MON dynstat_eta_del2             =   1.9058979289669E-01
(PID.TID 0000.0001) %MON dynstat_uvel_max             =   9.0706184888445E-03
(PID.TID 0000.0001) %MON dynstat_uvel_min             =  -4.1370097559200E-02
(PID.TID 0000.0001) %MON dynstat_uvel_mean            =   2.8419229713604E-09
(PID.TID 0000.0001) %MON dynstat_uvel_sd              =   1.1604310037261E-03
(PID.TID 0000.0001) %MON dynstat_uvel_del2            =   1.7828014674950E-06
(PID.TID 0000.0001) %MON dynstat_vvel_max             =   2.6993640123596E-02
(PID.TID 0000.0001) %MON dynstat_vvel_min             =  -1.1078217182797E-02
(PID.TID 0000.0001) %MON dynstat_vvel_mean            =   7.3378969068377E-09
(PID.TID 0000.0001) %MON dynstat_vvel_sd              =   5.3447864361978E-04
(PID.TID 0000.0001) %MON dynstat_vvel_del2            =   1.4210698897203E-06
(PID.TID 0000.0001) %MON dynstat_wvel_max             =   1.6543831449448E-03
(PID.TID 0000.0001) %MON dynstat_wvel_min             =  -2.1053803504753E-03
(PID.TID 0000.0001) %MON dynstat_wvel_mean            =   4.3964311077553E-10
(PID.TID 0000.0001) %MON dynstat_wvel_sd              =   2.7207658000926E-05
(PID.TID 0000.0001) %MON dynstat_wvel_del2            =   1.0907008971872E-07
(PID.TID 0000.0001) %MON dynstat_theta_max            =   1.2000000000000E+00
(PID.TID 0000.0001) %MON dynstat_theta_min            =  -1.0000000000000E+00
(PID.TID 0000.0001) %MON dynstat_theta_mean           =   5.6502443929494E-01
(PID.TID 0000.0001) %MON dynstat_theta_sd             =   8.4889219395494E-01
(PID.TID 0000.0001) %MON dynstat_theta_del2           =   3.9475334919516E-06
(PID.TID 0000.0001) %MON dynstat_salt_max             =   3.4700000000000E+01
(PID.TID 0000.0001) %MON dynstat_salt_min             =   3.4000000000000E+01
(PID.TID 0000.0001) %MON dynstat_salt_mean            =   3.4497923833201E+01
(PID.TID 0000.0001) %MON dynstat_salt_sd              =   2.7009481042366E-01
(PID.TID 0000.0001) %MON dynstat_salt_del2            =   1.5626756628257E-06
(PID.TID 0000.0001) %MON advcfl_uvel_max              =   4.1370097559200E-03
(PID.TID 0000.0001) %MON advcfl_vvel_max              =   2.6993640123596E-03
(PID.TID 0000.0001) %MON advcfl_wvel_max              =   1.0526901752376E-02
(PID.TID 0000.0001) %MON advcfl_W_hf_max              =   1.0526901752376E-02
(PID.TID 0000.0001) %MON pe_b_mean                    =  -6.8175467310450E-01
(PID.TID 0000.0001) %MON ke_max                       =   7.4775251505986E-04
(PID.TID 0000.0001) %MON ke_mean                      =   8.0347256073971E-07
(PID.TID 0000.0001) %MON ke_vol                       =   4.6183111393784E+12
(PID.TID 0000.0001) // =======================================================
(PID.TID 0000.0001) // End MONITOR dynamic field statistics
(PID.TID 0000.0001) // =======================================================
(PID.TID 0000.0001) // =======================================================
(PID.TID 0000.0001) // Begin OBCS MONITOR field statistics
(PID.TID 0000.0001) // =======================================================
(PID.TID 0000.0001) %MON obc_N_vVel_max               =  -3.4497350574895E-08
(PID.TID 0000.0001) %MON obc_N_vVel_min               =  -3.4497350574895E-08
(PID.TID 0000.0001) %MON obc_N_vVel_mean              =  -3.4497350574895E-08
(PID.TID 0000.0001) %MON obc_N_vVel_sd                =   1.8310267194089E-15
(PID.TID 0000.0001) %MON obc_N_vVel_Int               =  -2.2768251379431E+00
(PID.TID 0000.0001) // =======================================================
(PID.TID 0000.0001) // End OBCS MONITOR field statistics
(PID.TID 0000.0001) // =======================================================
 cg2d: Sum(rhs),rhsMax =   3.00770135839395E+00  4.53042013901153E+02
(PID.TID 0000.0001)      cg2d_init_res =   4.45605837931775E-06
(PID.TID 0000.0001)      cg2d_iters(min,last) =      -1      76
(PID.TID 0000.0001)      cg2d_last_res =   9.80057801088259E-12
(PID.TID 0000.0001) // =======================================================
(PID.TID 0000.0001) // Begin MONITOR dynamic field statistics
(PID.TID 0000.0001) // =======================================================
(PID.TID 0000.0001) %MON time_tsnumber                =                  1293
(PID.TID 0000.0001) %MON time_secondsf                =   1.2930000000000E+05
(PID.TID 0000.0001) %MON dynstat_eta_max              =   5.7990484157235E+00
(PID.TID 0000.0001) %MON dynstat_eta_min              =  -1.4169180455272E+01
(PID.TID 0000.0001) %MON dynstat_eta_mean             =  -2.5233612604075E+00
(PID.TID 0000.0001) %MON dynstat_eta_sd               =   4.9408725836041E+00
(PID.TID 0000.0001) %MON dynstat_eta_del2             =   1.9058981693213E-01
(PID.TID 0000.0001) %MON dynstat_uvel_max             =   9.0912328958694E-03
(PID.TID 0000.0001) %MON dynstat_uvel_min             =  -4.1457794446500E-02
(PID.TID 0000.0001) %MON dynstat_uvel_mean            =   2.8130159062886E-09
(PID.TID 0000.0001) %MON dynstat_uvel_sd              =   1.1631444012314E-03
(PID.TID 0000.0001) %MON dynstat_uvel_del2            =   1.7870650609182E-06
(PID.TID 0000.0001) %MON dynstat_vvel_max             =   2.7035449264416E-02
(PID.TID 0000.0001) %MON dynstat_vvel_min             =  -1.1110974169696E-02
(PID.TID 0000.0001) %MON dynstat_vvel_mean            =   1.5195914269825E-08
(PID.TID 0000.0001) %MON dynstat_vvel_sd              =   5.3554060443643E-04
(PID.TID 0000.0001) %MON dynstat_vvel_del2            =   1.4238234717700E-06
(PID.TID 0000.0001) %MON dynstat_wvel_max             =   1.6576166941944E-03
(PID.TID 0000.0001) %MON dynstat_wvel_min             =  -2.1101773488789E-03
(PID.TID 0000.0001) %MON dynstat_wvel_mean            =   4.4487737437206E-10
(PID.TID 0000.0001) %MON dynstat_wvel_sd              =   2.7266626312417E-05
(PID.TID 0000.0001) %MON dynstat_wvel_del2            =   1.0928104473313E-07
(PID.TID 0000.0001) %MON dynstat_theta_max            =   1.2000000000000E+00
(PID.TID 0000.0001) %MON dynstat_theta_min            =  -1.0000000000000E+00
(PID.TID 0000.0001) %MON dynstat_theta_mean           =   5.6502355783068E-01
(PID.TID 0000.0001) %MON dynstat_theta_sd             =   8.4889179475336E-01
(PID.TID 0000.0001) %MON dynstat_theta_del2           =   3.9549439261953E-06
(PID.TID 0000.0001) %MON dynstat_salt_max             =   3.4700000000000E+01
(PID.TID 0000.0001) %MON dynstat_salt_min             =   3.4000000000000E+01
(PID.TID 0000.0001) %MON dynstat_salt_mean            =   3.4497923480936E+01
(PID.TID 0000.0001) %MON dynstat_salt_sd              =   2.7009465965410E-01
(PID.TID 0000.0001) %MON dynstat_salt_del2            =   1.5656137491449E-06
(PID.TID 0000.0001) %MON advcfl_uvel_max              =   4.1457794446500E-03
(PID.TID 0000.0001) %MON advcfl_vvel_max              =   2.7035449264416E-03
(PID.TID 0000.0001) %MON advcfl_wvel_max              =   1.0550886744395E-02
(PID.TID 0000.0001) %MON advcfl_W_hf_max              =   1.0550886744395E-02
(PID.TID 0000.0001) %MON pe_b_mean                    =  -6.8175229024288E-01
(PID.TID 0000.0001) %MON ke_max                       =   7.5137192147632E-04
(PID.TID 0000.0001) %MON ke_mean                      =   8.0713383562508E-07
(PID.TID 0000.0001) %MON ke_vol                       =   4.6183111867273E+12
(PID.TID 0000.0001) // =======================================================
(PID.TID 0000.0001) // End MONITOR dynamic field statistics
(PID.TID 0000.0001) // =======================================================
(PID.TID 0000.0001) // =======================================================
(PID.TID 0000.0001) // Begin OBCS MONITOR field statistics
(PID.TID 0000.0001) // =======================================================
(PID.TID 0000.0001) %MON obc_N_vVel_max               =  -2.7571254847193E-08
(PID.TID 0000.0001) %MON obc_N_vVel_min               =  -2.7571254847194E-08
(PID.TID 0000.0001) %MON obc_N_vVel_mean              =  -2.7571254847193E-08
(PID.TID 0000.0001) %MON obc_N_vVel_sd                =   8.4552066524512E-15
(PID.TID 0000.0001) %MON obc_N_vVel_Int               =  -1.8197028199148E+00
(PID.TID 0000.0001) // =======================================================
(PID.TID 0000.0001) // End OBCS MONITOR field statistics
(PID.TID 0000.0001) // =======================================================
 cg2d: Sum(rhs),rhsMax =   3.00769195959950E+00  4.53041996387265E+02
(PID.TID 0000.0001)      cg2d_init_res =   4.46318491645743E-06
(PID.TID 0000.0001)      cg2d_iters(min,last) =      -1      76
(PID.TID 0000.0001)      cg2d_last_res =   9.82011187557199E-12
(PID.TID 0000.0001) // =======================================================
(PID.TID 0000.0001) // Begin MONITOR dynamic field statistics
(PID.TID 0000.0001) // =======================================================
(PID.TID 0000.0001) %MON time_tsnumber                =                  1294
(PID.TID 0000.0001) %MON time_secondsf                =   1.2940000000000E+05
(PID.TID 0000.0001) %MON dynstat_eta_max              =   5.7990512443213E+00
(PID.TID 0000.0001) %MON dynstat_eta_min              =  -1.4169163545363E+01
(PID.TID 0000.0001) %MON dynstat_eta_mean             =  -2.5233532775831E+00
(PID.TID 0000.0001) %MON dynstat_eta_sd               =   4.9408702993286E+00
(PID.TID 0000.0001) %MON dynstat_eta_del2             =   1.9058984101698E-01
(PID.TID 0000.0001) %MON dynstat_uvel_max             =   9.1118767979150E-03
(PID.TID 0000.0001) %MON dynstat_uvel_min             =  -4.1545581412130E-02
(PID.TID 0000.0001) %MON dynstat_uvel_mean            =   2.7900662849761E-09
(PID.TID 0000.0001) %MON dynstat_uvel_sd              =   1.1658632060361E-03
(PID.TID 0000.0001) %MON dynstat_uvel_del2            =   1.7913379930175E-06
(PID.TID 0000.0001) %MON dynstat_vvel_max             =   2.7077268763774E-02
(PID.TID 0000.0001) %MON dynstat_vvel_min             =  -1.1143802747579E-02
(PID.TID 0000.0001) %MON dynstat_vvel_mean            =   2.3755555211888E-08
(PID.TID 0000.0001) %MON dynstat_vvel_sd              =   5.3660464324799E-04
(PID.TID 0000.0001) %MON dynstat_vvel_del2            =   1.4265812066733E-06
(PID.TID 0000.0001) %MON dynstat_wvel_max             =   1.6608531294444E-03
(PID.TID 0000.0001) %MON dynstat_wvel_min             =  -2.1149752595049E-03
(PID.TID 0000.0001) %MON dynstat_wvel_mean            =   4.4890461464473E-10
(PID.TID 0000.0001) %MON dynstat_wvel_sd              =   2.7326268066378E-05
(PID.TID 0000.0001) %MON dynstat_wvel_del2            =   1.0949599232644E-07
(PID.TID 0000.0001) %MON dynstat_theta_max            =   1.2000000000000E+00
(PID.TID 0000.0001) %MON dynstat_theta_min            =  -1.0000000000000E+00
(PID.TID 0000.0001) %MON dynstat_theta_mean           =   5.6502267484786E-01
(PID.TID 0000.0001) %MON dynstat_theta_sd             =   8.4889139481041E-01
(PID.TID 0000.0001) %MON dynstat_theta_del2           =   3.9623614817324E-06
(PID.TID 0000.0001) %MON dynstat_salt_max             =   3.4700000000000E+01
(PID.TID 0000.0001) %MON dynstat_salt_min             =   3.4000000000000E+01
(PID.TID 0000.0001) %MON dynstat_salt_mean            =   3.4497923128062E+01
(PID.TID 0000.0001) %MON dynstat_salt_sd              =   2.7009450860686E-01
(PID.TID 0000.0001) %MON dynstat_salt_del2            =   1.5685548760431E-06
(PID.TID 0000.0001) %MON advcfl_uvel_max              =   4.1545581412130E-03
(PID.TID 0000.0001) %MON advcfl_vvel_max              =   2.7077268763774E-03
(PID.TID 0000.0001) %MON advcfl_wvel_max              =   1.0574876297525E-02
(PID.TID 0000.0001) %MON advcfl_W_hf_max              =   1.0574876297525E-02
(PID.TID 0000.0001) %MON pe_b_mean                    =  -6.8174990495240E-01
(PID.TID 0000.0001) %MON ke_max                       =   7.5500607734452E-04
(PID.TID 0000.0001) %MON ke_mean                      =   8.1081076311706E-07
(PID.TID 0000.0001) %MON ke_vol                       =   4.6183112341132E+12
(PID.TID 0000.0001) // =======================================================
(PID.TID 0000.0001) // End MONITOR dynamic field statistics
(PID.TID 0000.0001) // =======================================================
(PID.TID 0000.0001) // =======================================================
(PID.TID 0000.0001) // Begin OBCS MONITOR field statistics
(PID.TID 0000.0001) // =======================================================
(PID.TID 0000.0001) %MON obc_N_vVel_max               =  -1.9875981944867E-08
(PID.TID 0000.0001) %MON obc_N_vVel_min               =  -1.9875981944867E-08
(PID.TID 0000.0001) %MON obc_N_vVel_mean              =  -1.9875981944867E-08
(PID.TID 0000.0001) %MON obc_N_vVel_sd                =   2.1528023174861E-15
(PID.TID 0000.0001) %MON obc_N_vVel_Int               =  -1.3118148083612E+00
(PID.TID 0000.0001) // =======================================================
(PID.TID 0000.0001) // End OBCS MONITOR field statistics
(PID.TID 0000.0001) // =======================================================
 cg2d: Sum(rhs),rhsMax =   3.00768255285059E+00  4.53041979221583E+02
(PID.TID 0000.0001)      cg2d_init_res =   4.47039642445920E-06
(PID.TID 0000.0001)      cg2d_iters(min,last) =      -1      76
(PID.TID 0000.0001)      cg2d_last_res =   9.83956952729794E-12
(PID.TID 0000.0001) // =======================================================
(PID.TID 0000.0001) // Begin MONITOR dynamic field statistics
(PID.TID 0000.0001) // =======================================================
(PID.TID 0000.0001) %MON time_tsnumber                =                  1295
(PID.TID 0000.0001) %MON time_secondsf                =   1.2950000000000E+05
(PID.TID 0000.0001) %MON dynstat_eta_max              =   5.7990540592262E+00
(PID.TID 0000.0001) %MON dynstat_eta_min              =  -1.4169146621744E+01
(PID.TID 0000.0001) %MON dynstat_eta_mean             =  -2.5233452900253E+00
(PID.TID 0000.0001) %MON dynstat_eta_sd               =   4.9408680144646E+00
(PID.TID 0000.0001) %MON dynstat_eta_del2             =   1.9058986515077E-01
(PID.TID 0000.0001) %MON dynstat_uvel_max             =   9.1325500921027E-03
(PID.TID 0000.0001) %MON dynstat_uvel_min             =  -4.1633458544607E-02
(PID.TID 0000.0001) %MON dynstat_uvel_mean            =   2.7736066971753E-09
(PID.TID 0000.0001) %MON dynstat_uvel_sd              =   1.1685874256059E-03
(PID.TID 0000.0001) %MON dynstat_uvel_del2            =   1.7956202860064E-06
(PID.TID 0000.0001) %MON dynstat_vvel_max             =   2.7119098609428E-02
(PID.TID 0000.0001) %MON dynstat_vvel_min             =  -1.1176702853231E-02
(PID.TID 0000.0001) %MON dynstat_vvel_mean            =   3.2859605280413E-08
(PID.TID 0000.0001) %MON dynstat_vvel_sd              =   5.3767071571713E-04
(PID.TID 0000.0001) %MON dynstat_vvel_del2            =   1.4293427614022E-06
(PID.TID 0000.0001) %MON dynstat_wvel_max             =   1.6640924481208E-03
(PID.TID 0000.0001) %MON dynstat_wvel_min             =  -2.1197740071371E-03
(PID.TID 0000.0001) %MON dynstat_wvel_mean            =   4.5167459383250E-10
(PID.TID 0000.0001) %MON dynstat_wvel_sd              =   2.7386358403820E-05
(PID.TID 0000.0001) %MON dynstat_wvel_del2            =   1.0971377446933E-07
(PID.TID 0000.0001) %MON dynstat_theta_max            =   1.2000000000000E+00
(PID.TID 0000.0001) %MON dynstat_theta_min            =  -1.0000000000000E+00
(PID.TID 0000.0001) %MON dynstat_theta_mean           =   5.6502179034416E-01
(PID.TID 0000.0001) %MON dynstat_theta_sd             =   8.4889099412494E-01
(PID.TID 0000.0001) %MON dynstat_theta_del2           =   3.9697870188063E-06
(PID.TID 0000.0001) %MON dynstat_salt_max             =   3.4700000000000E+01
(PID.TID 0000.0001) %MON dynstat_salt_min             =   3.4000000000000E+01
(PID.TID 0000.0001) %MON dynstat_salt_mean            =   3.4497922774576E+01
(PID.TID 0000.0001) %MON dynstat_salt_sd              =   2.7009435728160E-01
(PID.TID 0000.0001) %MON dynstat_salt_del2            =   1.5714991409083E-06
(PID.TID 0000.0001) %MON advcfl_uvel_max              =   4.1633458544607E-03
(PID.TID 0000.0001) %MON advcfl_vvel_max              =   2.7119098609428E-03
(PID.TID 0000.0001) %MON advcfl_wvel_max              =   1.0598870035686E-02
(PID.TID 0000.0001) %MON advcfl_W_hf_max              =   1.0598870035686E-02
(PID.TID 0000.0001) %MON pe_b_mean                    =  -6.8174751733230E-01
(PID.TID 0000.0001) %MON ke_max                       =   7.5865502746015E-04
(PID.TID 0000.0001) %MON ke_mean                      =   8.1450337785846E-07
(PID.TID 0000.0001) %MON ke_vol                       =   4.6183112815312E+12
(PID.TID 0000.0001) // =======================================================
(PID.TID 0000.0001) // End MONITOR dynamic field statistics
(PID.TID 0000.0001) // =======================================================
(PID.TID 0000.0001) // =======================================================
(PID.TID 0000.0001) // Begin OBCS MONITOR field statistics
(PID.TID 0000.0001) // =======================================================
(PID.TID 0000.0001) %MON obc_N_vVel_max               =  -1.1555013251285E-08
(PID.TID 0000.0001) %MON obc_N_vVel_min               =  -1.1555013251286E-08
(PID.TID 0000.0001) %MON obc_N_vVel_mean              =  -1.1555013251285E-08
(PID.TID 0000.0001) %MON obc_N_vVel_sd                =   1.7624244137857E-15
(PID.TID 0000.0001) %MON obc_N_vVel_Int               =  -7.6263087458484E-01
(PID.TID 0000.0001) // =======================================================
(PID.TID 0000.0001) // End OBCS MONITOR field statistics
(PID.TID 0000.0001) // =======================================================
 cg2d: Sum(rhs),rhsMax =   3.00767313876607E+00  4.53041962400313E+02
(PID.TID 0000.0001)      cg2d_init_res =   4.47760643388810E-06
(PID.TID 0000.0001)      cg2d_iters(min,last) =      -1      76
(PID.TID 0000.0001)      cg2d_last_res =   9.85869341735125E-12
(PID.TID 0000.0001) // =======================================================
(PID.TID 0000.0001) // Begin MONITOR dynamic field statistics
(PID.TID 0000.0001) // =======================================================
(PID.TID 0000.0001) %MON time_tsnumber                =                  1296
(PID.TID 0000.0001) %MON time_secondsf                =   1.2960000000000E+05
(PID.TID 0000.0001) %MON dynstat_eta_max              =   5.7990568598111E+00
(PID.TID 0000.0001) %MON dynstat_eta_min              =  -1.4169129684977E+01
(PID.TID 0000.0001) %MON dynstat_eta_mean             =  -2.5233372982320E+00
(PID.TID 0000.0001) %MON dynstat_eta_sd               =   4.9408657290244E+00
(PID.TID 0000.0001) %MON dynstat_eta_del2             =   1.9058988933320E-01
(PID.TID 0000.0001) %MON dynstat_uvel_max             =   9.1532526735518E-03
(PID.TID 0000.0001) %MON dynstat_uvel_min             =  -4.1721425962450E-02
(PID.TID 0000.0001) %MON dynstat_uvel_mean            =   2.7640530442680E-09
(PID.TID 0000.0001) %MON dynstat_uvel_sd              =   1.1713170672887E-03
(PID.TID 0000.0001) %MON dynstat_uvel_del2            =   1.7999119559948E-06
(PID.TID 0000.0001) %MON dynstat_vvel_max             =   2.7160938787771E-02
(PID.TID 0000.0001) %MON dynstat_vvel_min             =  -1.1209674422805E-02
(PID.TID 0000.0001) %MON dynstat_vvel_mean            =   4.2342420907519E-08
(PID.TID 0000.0001) %MON dynstat_vvel_sd              =   5.3873877352329E-04
(PID.TID 0000.0001) %MON dynstat_vvel_del2            =   1.4321077803215E-06
(PID.TID 0000.0001) %MON dynstat_wvel_max             =   1.6673346475662E-03
(PID.TID 0000.0001) %MON dynstat_wvel_min             =  -2.1245735157738E-03
(PID.TID 0000.0001) %MON dynstat_wvel_mean            =   4.5315995289063E-10
(PID.TID 0000.0001) %MON dynstat_wvel_sd              =   2.7446650033106E-05
(PID.TID 0000.0001) %MON dynstat_wvel_del2            =   1.0993304942830E-07
(PID.TID 0000.0001) %MON dynstat_theta_max            =   1.2000000000000E+00
(PID.TID 0000.0001) %MON dynstat_theta_min            =  -1.0000000000000E+00
(PID.TID 0000.0001) %MON dynstat_theta_mean           =   5.6502090431732E-01
(PID.TID 0000.0001) %MON dynstat_theta_sd             =   8.4889059269645E-01
(PID.TID 0000.0001) %MON dynstat_theta_del2           =   3.9772210402957E-06
(PID.TID 0000.0001) %MON dynstat_salt_max             =   3.4700000000000E+01
(PID.TID 0000.0001) %MON dynstat_salt_min             =   3.4000000000000E+01
(PID.TID 0000.0001) %MON dynstat_salt_mean            =   3.4497922420478E+01
(PID.TID 0000.0001) %MON dynstat_salt_sd              =   2.7009420567817E-01
(PID.TID 0000.0001) %MON dynstat_salt_del2            =   1.5744464824378E-06
(PID.TID 0000.0001) %MON advcfl_uvel_max              =   4.1721425962450E-03
(PID.TID 0000.0001) %MON advcfl_vvel_max              =   2.7160938787771E-03
(PID.TID 0000.0001) %MON advcfl_wvel_max              =   1.0622867578869E-02
(PID.TID 0000.0001) %MON advcfl_W_hf_max              =   1.0622867578869E-02
(PID.TID 0000.0001) %MON pe_b_mean                    =  -6.8174512744602E-01
(PID.TID 0000.0001) %MON ke_max                       =   7.6231881661290E-04
(PID.TID 0000.0001) %MON ke_mean                      =   8.1821171219574E-07
(PID.TID 0000.0001) %MON ke_vol                       =   4.6183113289772E+12
(PID.TID 0000.0001) // =======================================================
(PID.TID 0000.0001) // End MONITOR dynamic field statistics
(PID.TID 0000.0001) // =======================================================
(PID.TID 0000.0001) // =======================================================
(PID.TID 0000.0001) // Begin OBCS MONITOR field statistics
(PID.TID 0000.0001) // =======================================================
(PID.TID 0000.0001) %MON obc_N_vVel_max               =  -2.7618385807697E-09
(PID.TID 0000.0001) %MON obc_N_vVel_min               =  -2.7618385807698E-09
(PID.TID 0000.0001) %MON obc_N_vVel_mean              =  -2.7618385807698E-09
(PID.TID 0000.0001) %MON obc_N_vVel_sd                =  -3.6053408558929E-31
(PID.TID 0000.0001) %MON obc_N_vVel_Int               =  -1.8228134633081E-01
(PID.TID 0000.0001) // =======================================================
(PID.TID 0000.0001) // End OBCS MONITOR field statistics
(PID.TID 0000.0001) // =======================================================
 cg2d: Sum(rhs),rhsMax =   3.00766371779240E+00  4.53041945913606E+02
(PID.TID 0000.0001)      cg2d_init_res =   4.48485889908005E-06
(PID.TID 0000.0001)      cg2d_iters(min,last) =      -1      76
(PID.TID 0000.0001)      cg2d_last_res =   9.87771958018917E-12
(PID.TID 0000.0001) // =======================================================
(PID.TID 0000.0001) // Begin MONITOR dynamic field statistics
(PID.TID 0000.0001) // =======================================================
(PID.TID 0000.0001) %MON time_tsnumber                =                  1297
(PID.TID 0000.0001) %MON time_secondsf                =   1.2970000000000E+05
(PID.TID 0000.0001) %MON dynstat_eta_max              =   5.7990596457647E+00
(PID.TID 0000.0001) %MON dynstat_eta_min              =  -1.4169112735280E+01
(PID.TID 0000.0001) %MON dynstat_eta_mean             =  -2.5233293025230E+00
(PID.TID 0000.0001) %MON dynstat_eta_sd               =   4.9408634429536E+00
(PID.TID 0000.0001) %MON dynstat_eta_del2             =   1.9058991356357E-01
(PID.TID 0000.0001) %MON dynstat_uvel_max             =   9.1739844364582E-03
(PID.TID 0000.0001) %MON dynstat_uvel_min             =  -4.1809483740974E-02
(PID.TID 0000.0001) %MON dynstat_uvel_mean            =   2.7616906701879E-09
(PID.TID 0000.0001) %MON dynstat_uvel_sd              =   1.1740521384421E-03
(PID.TID 0000.0001) %MON dynstat_uvel_del2            =   1.8042130174782E-06
(PID.TID 0000.0001) %MON dynstat_vvel_max             =   2.7202789284146E-02
(PID.TID 0000.0001) %MON dynstat_vvel_min             =  -1.1242717390793E-02
(PID.TID 0000.0001) %MON dynstat_vvel_mean            =   5.2032990374717E-08
(PID.TID 0000.0001) %MON dynstat_vvel_sd              =   5.3980876693815E-04
(PID.TID 0000.0001) %MON dynstat_vvel_del2            =   1.4348759048460E-06
(PID.TID 0000.0001) %MON dynstat_wvel_max             =   1.6705797250367E-03
(PID.TID 0000.0001) %MON dynstat_wvel_min             =  -2.1293737088001E-03
(PID.TID 0000.0001) %MON dynstat_wvel_mean            =   4.5335713410549E-10
(PID.TID 0000.0001) %MON dynstat_wvel_sd              =   2.7506891150580E-05
(PID.TID 0000.0001) %MON dynstat_wvel_del2            =   1.1015238785635E-07
(PID.TID 0000.0001) %MON dynstat_theta_max            =   1.2000000000000E+00
(PID.TID 0000.0001) %MON dynstat_theta_min            =  -1.0000000000000E+00
(PID.TID 0000.0001) %MON dynstat_theta_mean           =   5.6502001676496E-01
(PID.TID 0000.0001) %MON dynstat_theta_sd             =   8.4889019052503E-01
(PID.TID 0000.0001) %MON dynstat_theta_del2           =   3.9846640717664E-06
(PID.TID 0000.0001) %MON dynstat_salt_max             =   3.4700000000000E+01
(PID.TID 0000.0001) %MON dynstat_salt_min             =   3.4000000000000E+01
(PID.TID 0000.0001) %MON dynstat_salt_mean            =   3.4497922065767E+01
(PID.TID 0000.0001) %MON dynstat_salt_sd              =   2.7009405379651E-01
(PID.TID 0000.0001) %MON dynstat_salt_del2            =   1.5773974165158E-06
(PID.TID 0000.0001) %MON advcfl_uvel_max              =   4.1809483740974E-03
(PID.TID 0000.0001) %MON advcfl_vvel_max              =   2.7202789284146E-03
(PID.TID 0000.0001) %MON advcfl_wvel_max              =   1.0646868544000E-02
(PID.TID 0000.0001) %MON advcfl_W_hf_max              =   1.0646868544000E-02
(PID.TID 0000.0001) %MON pe_b_mean                    =  -6.8174273532021E-01
(PID.TID 0000.0001) %MON ke_max                       =   7.6599748934077E-04
(PID.TID 0000.0001) %MON ke_mean                      =   8.2193579769143E-07
(PID.TID 0000.0001) %MON ke_vol                       =   4.6183113764485E+12
(PID.TID 0000.0001) // =======================================================
(PID.TID 0000.0001) // End MONITOR dynamic field statistics
(PID.TID 0000.0001) // =======================================================
(PID.TID 0000.0001) // =======================================================
(PID.TID 0000.0001) // Begin OBCS MONITOR field statistics
(PID.TID 0000.0001) // =======================================================
(PID.TID 0000.0001) %MON obc_N_vVel_max               =   6.3429225294537E-09
(PID.TID 0000.0001) %MON obc_N_vVel_min               =   6.3429225294537E-09
(PID.TID 0000.0001) %MON obc_N_vVel_mean              =   6.3429225294537E-09
(PID.TID 0000.0001) %MON obc_N_vVel_sd                =  -2.5268200870361E-31
(PID.TID 0000.0001) %MON obc_N_vVel_Int               =   4.1863288694394E-01
(PID.TID 0000.0001) // =======================================================
(PID.TID 0000.0001) // End OBCS MONITOR field statistics
(PID.TID 0000.0001) // =======================================================
 cg2d: Sum(rhs),rhsMax =   3.00765429019712E+00  4.53041929745772E+02
(PID.TID 0000.0001)      cg2d_init_res =   4.49221835698750E-06
(PID.TID 0000.0001)      cg2d_iters(min,last) =      -1      76
(PID.TID 0000.0001)      cg2d_last_res =   9.89668560588326E-12
(PID.TID 0000.0001) // =======================================================
(PID.TID 0000.0001) // Begin MONITOR dynamic field statistics
(PID.TID 0000.0001) // =======================================================
(PID.TID 0000.0001) %MON time_tsnumber                =                  1298
(PID.TID 0000.0001) %MON time_secondsf                =   1.2980000000000E+05
(PID.TID 0000.0001) %MON dynstat_eta_max              =   5.7990624170685E+00
(PID.TID 0000.0001) %MON dynstat_eta_min              =  -1.4169095772506E+01
(PID.TID 0000.0001) %MON dynstat_eta_mean             =  -2.5233213030353E+00
(PID.TID 0000.0001) %MON dynstat_eta_sd               =   4.9408611561444E+00
(PID.TID 0000.0001) %MON dynstat_eta_del2             =   1.9058993784189E-01
(PID.TID 0000.0001) %MON dynstat_uvel_max             =   9.1947452734047E-03
(PID.TID 0000.0001) %MON dynstat_uvel_min             =  -4.1897631971756E-02
(PID.TID 0000.0001) %MON dynstat_uvel_mean            =   2.7666873426287E-09
(PID.TID 0000.0001) %MON dynstat_uvel_sd              =   1.1767926464118E-03
(PID.TID 0000.0001) %MON dynstat_uvel_del2            =   1.8085234874817E-06
(PID.TID 0000.0001) %MON dynstat_vvel_max             =   2.7244650083264E-02
(PID.TID 0000.0001) %MON dynstat_vvel_min             =  -1.1275831691174E-02
(PID.TID 0000.0001) %MON dynstat_vvel_mean            =   6.1758062767443E-08
(PID.TID 0000.0001) %MON dynstat_vvel_sd              =   5.4088064819888E-04
(PID.TID 0000.0001) %MON dynstat_vvel_del2            =   1.4376467955009E-06
(PID.TID 0000.0001) %MON dynstat_wvel_max             =   1.6738276777070E-03
(PID.TID 0000.0001) %MON dynstat_wvel_min             =  -2.1341745089179E-03
(PID.TID 0000.0001) %MON dynstat_wvel_mean            =   4.5228452158141E-10
(PID.TID 0000.0001) %MON dynstat_wvel_sd              =   2.7566843548232E-05
(PID.TID 0000.0001) %MON dynstat_wvel_del2            =   1.1037037964699E-07
(PID.TID 0000.0001) %MON dynstat_theta_max            =   1.2000000000000E+00
(PID.TID 0000.0001) %MON dynstat_theta_min            =  -1.0000000000000E+00
(PID.TID 0000.0001) %MON dynstat_theta_mean           =   5.6501912768467E-01
(PID.TID 0000.0001) %MON dynstat_theta_sd             =   8.4888978761132E-01
(PID.TID 0000.0001) %MON dynstat_theta_del2           =   3.9921166263812E-06
(PID.TID 0000.0001) %MON dynstat_salt_max             =   3.4700000000000E+01
(PID.TID 0000.0001) %MON dynstat_salt_min             =   3.4000000000000E+01
(PID.TID 0000.0001) %MON dynstat_salt_mean            =   3.4497921710441E+01
(PID.TID 0000.0001) %MON dynstat_salt_sd              =   2.7009390163691E-01
(PID.TID 0000.0001) %MON dynstat_salt_del2            =   1.5803520804223E-06
(PID.TID 0000.0001) %MON advcfl_uvel_max              =   4.1897631971756E-03
(PID.TID 0000.0001) %MON advcfl_vvel_max              =   2.7244650083264E-03
(PID.TID 0000.0001) %MON advcfl_wvel_max              =   1.0670872544590E-02
(PID.TID 0000.0001) %MON advcfl_W_hf_max              =   1.0670872544590E-02
(PID.TID 0000.0001) %MON pe_b_mean                    =  -6.8174034094435E-01
(PID.TID 0000.0001) %MON ke_max                       =   7.6969109052493E-04
(PID.TID 0000.0001) %MON ke_mean                      =   8.2567566691504E-07
(PID.TID 0000.0001) %MON ke_vol                       =   4.6183114239430E+12
(PID.TID 0000.0001) // =======================================================
(PID.TID 0000.0001) // End MONITOR dynamic field statistics
(PID.TID 0000.0001) // =======================================================
(PID.TID 0000.0001) // =======================================================
(PID.TID 0000.0001) // Begin OBCS MONITOR field statistics
(PID.TID 0000.0001) // =======================================================
(PID.TID 0000.0001) %MON obc_N_vVel_max               =   1.5594487857484E-08
(PID.TID 0000.0001) %MON obc_N_vVel_min               =   1.5594487857484E-08
(PID.TID 0000.0001) %MON obc_N_vVel_mean              =   1.5594487857484E-08
(PID.TID 0000.0001) %MON obc_N_vVel_sd                =   2.9457545650361E-15
(PID.TID 0000.0001) %MON obc_N_vVel_Int               =   1.0292361985940E+00
(PID.TID 0000.0001) // =======================================================
(PID.TID 0000.0001) // End OBCS MONITOR field statistics
(PID.TID 0000.0001) // =======================================================
 cg2d: Sum(rhs),rhsMax =   3.00764485606377E+00  4.53041913875650E+02
(PID.TID 0000.0001)      cg2d_init_res =   4.49963223848436E-06
(PID.TID 0000.0001)      cg2d_iters(min,last) =      -1      76
(PID.TID 0000.0001)      cg2d_last_res =   9.91562774734865E-12
(PID.TID 0000.0001) // =======================================================
(PID.TID 0000.0001) // Begin MONITOR dynamic field statistics
(PID.TID 0000.0001) // =======================================================
(PID.TID 0000.0001) %MON time_tsnumber                =                  1299
(PID.TID 0000.0001) %MON time_secondsf                =   1.2990000000000E+05
(PID.TID 0000.0001) %MON dynstat_eta_max              =   5.7990651740111E+00
(PID.TID 0000.0001) %MON dynstat_eta_min              =  -1.4169078796169E+01
(PID.TID 0000.0001) %MON dynstat_eta_mean             =  -2.5233132997211E+00
(PID.TID 0000.0001) %MON dynstat_eta_sd               =   4.9408588684239E+00
(PID.TID 0000.0001) %MON dynstat_eta_del2             =   1.9058996216744E-01
(PID.TID 0000.0001) %MON dynstat_uvel_max             =   9.2155350753780E-03
(PID.TID 0000.0001) %MON dynstat_uvel_min             =  -4.1985870747840E-02
(PID.TID 0000.0001) %MON dynstat_uvel_mean            =   2.7790763875534E-09
(PID.TID 0000.0001) %MON dynstat_uvel_sd              =   1.1795385985370E-03
(PID.TID 0000.0001) %MON dynstat_uvel_del2            =   1.8128433827736E-06
(PID.TID 0000.0001) %MON dynstat_vvel_max             =   2.7286521169572E-02
(PID.TID 0000.0001) %MON dynstat_vvel_min             =  -1.1309017256307E-02
(PID.TID 0000.0001) %MON dynstat_vvel_mean            =   7.1345329449598E-08
(PID.TID 0000.0001) %MON dynstat_vvel_sd              =   5.4195437494212E-04
(PID.TID 0000.0001) %MON dynstat_vvel_del2            =   1.4404201576419E-06
(PID.TID 0000.0001) %MON dynstat_wvel_max             =   1.6770785026555E-03
(PID.TID 0000.0001) %MON dynstat_wvel_min             =  -2.1389758380974E-03
(PID.TID 0000.0001) %MON dynstat_wvel_mean            =   4.4998448585063E-10
(PID.TID 0000.0001) %MON dynstat_wvel_sd              =   2.7626299460660E-05
(PID.TID 0000.0001) %MON dynstat_wvel_del2            =   1.1058573945400E-07
(PID.TID 0000.0001) %MON dynstat_theta_max            =   1.2000000000000E+00
(PID.TID 0000.0001) %MON dynstat_theta_min            =  -1.0000000000000E+00
(PID.TID 0000.0001) %MON dynstat_theta_mean           =   5.6501823707388E-01
(PID.TID 0000.0001) %MON dynstat_theta_sd             =   8.4888938395569E-01
(PID.TID 0000.0001) %MON dynstat_theta_del2           =   3.9995791863058E-06
(PID.TID 0000.0001) %MON dynstat_salt_max             =   3.4700000000000E+01
(PID.TID 0000.0001) %MON dynstat_salt_min             =   3.4000000000000E+01
(PID.TID 0000.0001) %MON dynstat_salt_mean            =   3.4497921354501E+01
(PID.TID 0000.0001) %MON dynstat_salt_sd              =   2.7009374919961E-01
(PID.TID 0000.0001) %MON dynstat_salt_del2            =   1.5833106152058E-06
(PID.TID 0000.0001) %MON advcfl_uvel_max              =   4.1985870747840E-03
(PID.TID 0000.0001) %MON advcfl_vvel_max              =   2.7286521169572E-03
(PID.TID 0000.0001) %MON advcfl_wvel_max              =   1.0694879190487E-02
(PID.TID 0000.0001) %MON advcfl_W_hf_max              =   1.0694879190487E-02
(PID.TID 0000.0001) %MON pe_b_mean                    =  -6.8173794427109E-01
(PID.TID 0000.0001) %MON ke_max                       =   7.7339966517862E-04
(PID.TID 0000.0001) %MON ke_mean                      =   8.2943135532059E-07
(PID.TID 0000.0001) %MON ke_vol                       =   4.6183114714600E+12
(PID.TID 0000.0001) // =======================================================
(PID.TID 0000.0001) // End MONITOR dynamic field statistics
(PID.TID 0000.0001) // =======================================================
(PID.TID 0000.0001) // =======================================================
(PID.TID 0000.0001) // Begin OBCS MONITOR field statistics
(PID.TID 0000.0001) // =======================================================
(PID.TID 0000.0001) %MON obc_N_vVel_max               =   2.4826919457713E-08
(PID.TID 0000.0001) %MON obc_N_vVel_min               =   2.4826919457712E-08
(PID.TID 0000.0001) %MON obc_N_vVel_mean              =   2.4826919457712E-08
(PID.TID 0000.0001) %MON obc_N_vVel_sd                =   7.4111025175754E-15
(PID.TID 0000.0001) %MON obc_N_vVel_Int               =   1.6385766842090E+00
(PID.TID 0000.0001) // =======================================================
(PID.TID 0000.0001) // End OBCS MONITOR field statistics
(PID.TID 0000.0001) // =======================================================
 cg2d: Sum(rhs),rhsMax =   3.00763541529187E+00  4.53041898277132E+02
(PID.TID 0000.0001)      cg2d_init_res =   4.50709589092505E-06
(PID.TID 0000.0001)      cg2d_iters(min,last) =      -1      76
(PID.TID 0000.0001)      cg2d_last_res =   9.93459088896567E-12
(PID.TID 0000.0001) // =======================================================
(PID.TID 0000.0001) // Begin MONITOR dynamic field statistics
(PID.TID 0000.0001) // =======================================================
(PID.TID 0000.0001) %MON time_tsnumber                =                  1300
(PID.TID 0000.0001) %MON time_secondsf                =   1.3000000000000E+05
(PID.TID 0000.0001) %MON dynstat_eta_max              =   5.7990679171681E+00
(PID.TID 0000.0001) %MON dynstat_eta_min              =  -1.4169061805435E+01
(PID.TID 0000.0001) %MON dynstat_eta_mean             =  -2.5233052923507E+00
(PID.TID 0000.0001) %MON dynstat_eta_sd               =   4.9408565795630E+00
(PID.TID 0000.0001) %MON dynstat_eta_del2             =   1.9058998653942E-01
(PID.TID 0000.0001) %MON dynstat_uvel_max             =   9.2363537317475E-03
(PID.TID 0000.0001) %MON dynstat_uvel_min             =  -4.2074200163468E-02
(PID.TID 0000.0001) %MON dynstat_uvel_mean            =   2.7987506673857E-09
(PID.TID 0000.0001) %MON dynstat_uvel_sd              =   1.1822900021372E-03
(PID.TID 0000.0001) %MON dynstat_uvel_del2            =   1.8171727197057E-06
(PID.TID 0000.0001) %MON dynstat_vvel_max             =   2.7328402527709E-02
(PID.TID 0000.0001) %MON dynstat_vvel_min             =  -1.1342274015961E-02
(PID.TID 0000.0001) %MON dynstat_vvel_mean            =   8.0626555703264E-08
(PID.TID 0000.0001) %MON dynstat_vvel_sd              =   5.4302991305269E-04
(PID.TID 0000.0001) %MON dynstat_vvel_del2            =   1.4431957616417E-06
(PID.TID 0000.0001) %MON dynstat_wvel_max             =   1.6803321968380E-03
(PID.TID 0000.0001) %MON dynstat_wvel_min             =  -2.1437776177244E-03
(PID.TID 0000.0001) %MON dynstat_wvel_mean            =   4.4652065493927E-10
(PID.TID 0000.0001) %MON dynstat_wvel_sd              =   2.7685095913104E-05
(PID.TID 0000.0001) %MON dynstat_wvel_del2            =   1.1079740235709E-07
(PID.TID 0000.0001) %MON dynstat_theta_max            =   1.2000000000000E+00
(PID.TID 0000.0001) %MON dynstat_theta_min            =  -1.0000000000000E+00
(PID.TID 0000.0001) %MON dynstat_theta_mean           =   5.6501734492998E-01
(PID.TID 0000.0001) %MON dynstat_theta_sd             =   8.4888897955895E-01
(PID.TID 0000.0001) %MON dynstat_theta_del2           =   4.0070520903230E-06
(PID.TID 0000.0001) %MON dynstat_salt_max             =   3.4700000000000E+01
(PID.TID 0000.0001) %MON dynstat_salt_min             =   3.4000000000000E+01
(PID.TID 0000.0001) %MON dynstat_salt_mean            =   3.4497920997944E+01
(PID.TID 0000.0001) %MON dynstat_salt_sd              =   2.7009359648467E-01
(PID.TID 0000.0001) %MON dynstat_salt_del2            =   1.5862731407525E-06
(PID.TID 0000.0001) %MON advcfl_uvel_max              =   4.2074200163468E-03
(PID.TID 0000.0001) %MON advcfl_vvel_max              =   2.7328402527709E-03
(PID.TID 0000.0001) %MON advcfl_wvel_max              =   1.0718888088622E-02
(PID.TID 0000.0001) %MON advcfl_W_hf_max              =   1.0718888088622E-02
(PID.TID 0000.0001) %MON pe_b_mean                    =  -6.8173554521742E-01
(PID.TID 0000.0001) %MON ke_max                       =   7.7712325845619E-04
(PID.TID 0000.0001) %MON ke_mean                      =   8.3320290280609E-07
(PID.TID 0000.0001) %MON ke_vol                       =   4.6183115189997E+12
(PID.TID 0000.0001) // =======================================================
(PID.TID 0000.0001) // End MONITOR dynamic field statistics
(PID.TID 0000.0001) // =======================================================
(PID.TID 0000.0001) // =======================================================
(PID.TID 0000.0001) // Begin OBCS MONITOR field statistics
(PID.TID 0000.0001) // =======================================================
(PID.TID 0000.0001) %MON obc_N_vVel_max               =   3.3876180128629E-08
(PID.TID 0000.0001) %MON obc_N_vVel_min               =   3.3876180128629E-08
(PID.TID 0000.0001) %MON obc_N_vVel_mean              =   3.3876180128629E-08
(PID.TID 0000.0001) %MON obc_N_vVel_sd                =  -4.3387349787156E-30
(PID.TID 0000.0001) %MON obc_N_vVel_Int               =   2.2358278884895E+00
(PID.TID 0000.0001) // =======================================================
(PID.TID 0000.0001) // End OBCS MONITOR field statistics
(PID.TID 0000.0001) // =======================================================
 cg2d: Sum(rhs),rhsMax =   3.00762596759911E+00  4.53041882919706E+02
(PID.TID 0000.0001)      cg2d_init_res =   4.51460336496174E-06
(PID.TID 0000.0001)      cg2d_iters(min,last) =      -1      76
(PID.TID 0000.0001)      cg2d_last_res =   9.95360799046676E-12
(PID.TID 0000.0001) // =======================================================
(PID.TID 0000.0001) // Begin MONITOR dynamic field statistics
(PID.TID 0000.0001) // =======================================================
(PID.TID 0000.0001) %MON time_tsnumber                =                  1301
(PID.TID 0000.0001) %MON time_secondsf                =   1.3010000000000E+05
(PID.TID 0000.0001) %MON dynstat_eta_max              =   5.7990706474038E+00
(PID.TID 0000.0001) %MON dynstat_eta_min              =  -1.4169044799157E+01
(PID.TID 0000.0001) %MON dynstat_eta_mean             =  -2.5232972805172E+00
(PID.TID 0000.0001) %MON dynstat_eta_sd               =   4.9408542892806E+00
(PID.TID 0000.0001) %MON dynstat_eta_del2             =   1.9059001095689E-01
(PID.TID 0000.0001) %MON dynstat_uvel_max             =   9.2572011303460E-03
(PID.TID 0000.0001) %MON dynstat_uvel_min             =  -4.2162620314833E-02
(PID.TID 0000.0001) %MON dynstat_uvel_mean            =   2.8254671778476E-09
(PID.TID 0000.0001) %MON dynstat_uvel_sd              =   1.1850468645096E-03
(PID.TID 0000.0001) %MON dynstat_uvel_del2            =   1.8215115140583E-06
(PID.TID 0000.0001) %MON dynstat_vvel_max             =   2.7370294142919E-02
(PID.TID 0000.0001) %MON dynstat_vvel_min             =  -1.1375601897013E-02
(PID.TID 0000.0001) %MON dynstat_vvel_mean            =   8.9440612973041E-08
(PID.TID 0000.0001) %MON dynstat_vvel_sd              =   5.4410723884120E-04
(PID.TID 0000.0001) %MON dynstat_vvel_del2            =   1.4459734579832E-06
(PID.TID 0000.0001) %MON dynstat_wvel_max             =   1.6835887571302E-03
(PID.TID 0000.0001) %MON dynstat_wvel_min             =  -2.1485797686518E-03
(PID.TID 0000.0001) %MON dynstat_wvel_mean            =   4.4197740099356E-10
(PID.TID 0000.0001) %MON dynstat_wvel_sd              =   2.7743125575121E-05
(PID.TID 0000.0001) %MON dynstat_wvel_del2            =   1.1100460282696E-07
(PID.TID 0000.0001) %MON dynstat_theta_max            =   1.2000000000000E+00
(PID.TID 0000.0001) %MON dynstat_theta_min            =  -1.0000000000000E+00
(PID.TID 0000.0001) %MON dynstat_theta_mean           =   5.6501645125021E-01
(PID.TID 0000.0001) %MON dynstat_theta_sd             =   8.4888857442009E-01
(PID.TID 0000.0001) %MON dynstat_theta_del2           =   4.0145355788954E-06
(PID.TID 0000.0001) %MON dynstat_salt_max             =   3.4700000000000E+01
(PID.TID 0000.0001) %MON dynstat_salt_min             =   3.4000000000000E+01
(PID.TID 0000.0001) %MON dynstat_salt_mean            =   3.4497920640770E+01
(PID.TID 0000.0001) %MON dynstat_salt_sd              =   2.7009344349182E-01
(PID.TID 0000.0001) %MON dynstat_salt_del2            =   1.5892397424043E-06
(PID.TID 0000.0001) %MON advcfl_uvel_max              =   4.2162620314833E-03
(PID.TID 0000.0001) %MON advcfl_vvel_max              =   2.7370294142919E-03
(PID.TID 0000.0001) %MON advcfl_wvel_max              =   1.0742898843259E-02
(PID.TID 0000.0001) %MON advcfl_W_hf_max              =   1.0742898843259E-02
(PID.TID 0000.0001) %MON pe_b_mean                    =  -6.8173314366621E-01
(PID.TID 0000.0001) %MON ke_max                       =   7.8086191566049E-04
(PID.TID 0000.0001) %MON ke_mean                      =   8.3699035494077E-07
(PID.TID 0000.0001) %MON ke_vol                       =   4.6183115665634E+12
(PID.TID 0000.0001) // =======================================================
(PID.TID 0000.0001) // End MONITOR dynamic field statistics
(PID.TID 0000.0001) // =======================================================
(PID.TID 0000.0001) // =======================================================
(PID.TID 0000.0001) // Begin OBCS MONITOR field statistics
(PID.TID 0000.0001) // =======================================================
(PID.TID 0000.0001) %MON obc_N_vVel_max               =   4.2583071299792E-08
(PID.TID 0000.0001) %MON obc_N_vVel_min               =   4.2583071299790E-08
(PID.TID 0000.0001) %MON obc_N_vVel_mean              =   4.2583071299792E-08
(PID.TID 0000.0001) %MON obc_N_vVel_sd                =  -7.8886090522101E-29
(PID.TID 0000.0001) %MON obc_N_vVel_Int               =   2.8104827057862E+00
(PID.TID 0000.0001) // =======================================================
(PID.TID 0000.0001) // End OBCS MONITOR field statistics
(PID.TID 0000.0001) // =======================================================
 cg2d: Sum(rhs),rhsMax =   3.00761651252788E+00  4.53041867769053E+02
(PID.TID 0000.0001)      cg2d_init_res =   4.52215312152368E-06
(PID.TID 0000.0001)      cg2d_iters(min,last) =      -1      76
(PID.TID 0000.0001)      cg2d_last_res =   9.97269294064047E-12
(PID.TID 0000.0001) // =======================================================
(PID.TID 0000.0001) // Begin MONITOR dynamic field statistics
(PID.TID 0000.0001) // =======================================================
(PID.TID 0000.0001) %MON time_tsnumber                =                  1302
(PID.TID 0000.0001) %MON time_secondsf                =   1.3020000000000E+05
(PID.TID 0000.0001) %MON dynstat_eta_max              =   5.7990733658307E+00
(PID.TID 0000.0001) %MON dynstat_eta_min              =  -1.4169027775867E+01
(PID.TID 0000.0001) %MON dynstat_eta_mean             =  -2.5232892636457E+00
(PID.TID 0000.0001) %MON dynstat_eta_sd               =   4.9408519972498E+00
(PID.TID 0000.0001) %MON dynstat_eta_del2             =   1.9059003541889E-01
(PID.TID 0000.0001) %MON dynstat_uvel_max             =   9.2780771573002E-03
(PID.TID 0000.0001) %MON dynstat_uvel_min             =  -4.2251131299687E-02
(PID.TID 0000.0001) %MON dynstat_uvel_mean            =   2.8588559384872E-09
(PID.TID 0000.0001) %MON dynstat_uvel_sd              =   1.1878091929381E-03
(PID.TID 0000.0001) %MON dynstat_uvel_del2            =   1.8258597810875E-06
(PID.TID 0000.0001) %MON dynstat_vvel_max             =   2.7412196001342E-02
(PID.TID 0000.0001) %MON dynstat_vvel_min             =  -1.1409000823081E-02
(PID.TID 0000.0001) %MON dynstat_vvel_mean            =   9.7636363845673E-08
(PID.TID 0000.0001) %MON dynstat_vvel_sd              =   5.4518634041198E-04
(PID.TID 0000.0001) %MON dynstat_vvel_del2            =   1.4487531862992E-06
(PID.TID 0000.0001) %MON dynstat_wvel_max             =   1.6868481802797E-03
(PID.TID 0000.0001) %MON dynstat_wvel_min             =  -2.1533822111185E-03
(PID.TID 0000.0001) %MON dynstat_wvel_mean            =   4.3645797457138E-10
(PID.TID 0000.0001) %MON dynstat_wvel_sd              =   2.7800343363865E-05
(PID.TID 0000.0001) %MON dynstat_wvel_del2            =   1.1120693072573E-07
(PID.TID 0000.0001) %MON dynstat_theta_max            =   1.2000000000000E+00
(PID.TID 0000.0001) %MON dynstat_theta_min            =  -1.0000000000000E+00
(PID.TID 0000.0001) %MON dynstat_theta_mean           =   5.6501555603169E-01
(PID.TID 0000.0001) %MON dynstat_theta_sd             =   8.4888816853927E-01
(PID.TID 0000.0001) %MON dynstat_theta_del2           =   4.0220299417419E-06
(PID.TID 0000.0001) %MON dynstat_salt_max             =   3.4700000000000E+01
(PID.TID 0000.0001) %MON dynstat_salt_min             =   3.4000000000000E+01
(PID.TID 0000.0001) %MON dynstat_salt_mean            =   3.4497920282977E+01
(PID.TID 0000.0001) %MON dynstat_salt_sd              =   2.7009329022129E-01
(PID.TID 0000.0001) %MON dynstat_salt_del2            =   1.5922104789454E-06
(PID.TID 0000.0001) %MON advcfl_uvel_max              =   4.2251131299687E-03
(PID.TID 0000.0001) %MON advcfl_vvel_max              =   2.7412196001342E-03
(PID.TID 0000.0001) %MON advcfl_wvel_max              =   1.0766911055592E-02
(PID.TID 0000.0001) %MON advcfl_W_hf_max              =   1.0766911055592E-02
(PID.TID 0000.0001) %MON pe_b_mean                    =  -6.8173073946866E-01
(PID.TID 0000.0001) %MON ke_max                       =   7.8461568224545E-04
(PID.TID 0000.0001) %MON ke_mean                      =   8.4079376377778E-07
(PID.TID 0000.0001) %MON ke_vol                       =   4.6183116141537E+12
(PID.TID 0000.0001) // =======================================================
(PID.TID 0000.0001) // End MONITOR dynamic field statistics
(PID.TID 0000.0001) // =======================================================
(PID.TID 0000.0001) // =======================================================
(PID.TID 0000.0001) // Begin OBCS MONITOR field statistics
(PID.TID 0000.0001) // =======================================================
(PID.TID 0000.0001) %MON obc_N_vVel_max               =   5.0796112807505E-08
(PID.TID 0000.0001) %MON obc_N_vVel_min               =   5.0796112807505E-08
(PID.TID 0000.0001) %MON obc_N_vVel_mean              =   5.0796112807505E-08
(PID.TID 0000.0001) %MON obc_N_vVel_sd                =  -1.1359597035183E-28
(PID.TID 0000.0001) %MON obc_N_vVel_Int               =   3.3525434452953E+00
(PID.TID 0000.0001) // =======================================================
(PID.TID 0000.0001) // End OBCS MONITOR field statistics
(PID.TID 0000.0001) // =======================================================
 cg2d: Sum(rhs),rhsMax =   3.00760704945452E+00  4.53041852787798E+02
(PID.TID 0000.0001)      cg2d_init_res =   4.52974964039829E-06
(PID.TID 0000.0001)      cg2d_iters(min,last) =      -1      76
(PID.TID 0000.0001)      cg2d_last_res =   9.99192113409997E-12
(PID.TID 0000.0001) // =======================================================
(PID.TID 0000.0001) // Begin MONITOR dynamic field statistics
(PID.TID 0000.0001) // =======================================================
(PID.TID 0000.0001) %MON time_tsnumber                =                  1303
(PID.TID 0000.0001) %MON time_secondsf                =   1.3030000000000E+05
(PID.TID 0000.0001) %MON dynstat_eta_max              =   5.7990760738127E+00
(PID.TID 0000.0001) %MON dynstat_eta_min              =  -1.4169010733837E+01
(PID.TID 0000.0001) %MON dynstat_eta_mean             =  -2.5232812410047E+00
(PID.TID 0000.0001) %MON dynstat_eta_sd               =   4.9408497031056E+00
(PID.TID 0000.0001) %MON dynstat_eta_del2             =   1.9059005992450E-01
(PID.TID 0000.0001) %MON dynstat_uvel_max             =   9.2989816970483E-03
(PID.TID 0000.0001) %MON dynstat_uvel_min             =  -4.2339733217890E-02
(PID.TID 0000.0001) %MON dynstat_uvel_mean            =   2.8984327373325E-09
(PID.TID 0000.0001) %MON dynstat_uvel_sd              =   1.1905769946630E-03
(PID.TID 0000.0001) %MON dynstat_uvel_del2            =   1.8302175358571E-06
(PID.TID 0000.0001) %MON dynstat_vvel_max             =   2.7454108090405E-02
(PID.TID 0000.0001) %MON dynstat_vvel_min             =  -1.1442470714119E-02
(PID.TID 0000.0001) %MON dynstat_vvel_mean            =   1.0507534690117E-07
(PID.TID 0000.0001) %MON dynstat_vvel_sd              =   5.4626721817461E-04
(PID.TID 0000.0001) %MON dynstat_vvel_del2            =   1.4515349782290E-06
(PID.TID 0000.0001) %MON dynstat_wvel_max             =   1.6901104629046E-03
(PID.TID 0000.0001) %MON dynstat_wvel_min             =  -2.1581848648585E-03
(PID.TID 0000.0001) %MON dynstat_wvel_mean            =   4.3008239281124E-10
(PID.TID 0000.0001) %MON dynstat_wvel_sd              =   2.7856768358321E-05
(PID.TID 0000.0001) %MON dynstat_wvel_del2            =   1.1140435996402E-07
(PID.TID 0000.0001) %MON dynstat_theta_max            =   1.2000000000000E+00
(PID.TID 0000.0001) %MON dynstat_theta_min            =  -1.0000000000000E+00
(PID.TID 0000.0001) %MON dynstat_theta_mean           =   5.6501465927151E-01
(PID.TID 0000.0001) %MON dynstat_theta_sd             =   8.4888776191706E-01
(PID.TID 0000.0001) %MON dynstat_theta_del2           =   4.0295352467237E-06
(PID.TID 0000.0001) %MON dynstat_salt_max             =   3.4700000000000E+01
(PID.TID 0000.0001) %MON dynstat_salt_min             =   3.4000000000000E+01
(PID.TID 0000.0001) %MON dynstat_salt_mean            =   3.4497919924565E+01
(PID.TID 0000.0001) %MON dynstat_salt_sd              =   2.7009313667312E-01
(PID.TID 0000.0001) %MON dynstat_salt_del2            =   1.5951854250405E-06
(PID.TID 0000.0001) %MON advcfl_uvel_max              =   4.2339733217890E-03
(PID.TID 0000.0001) %MON advcfl_vvel_max              =   2.7454108090405E-03
(PID.TID 0000.0001) %MON advcfl_wvel_max              =   1.0790924324292E-02
(PID.TID 0000.0001) %MON advcfl_W_hf_max              =   1.0790924324292E-02
(PID.TID 0000.0001) %MON pe_b_mean                    =  -6.8172833244721E-01
(PID.TID 0000.0001) %MON ke_max                       =   7.8838460382999E-04
(PID.TID 0000.0001) %MON ke_mean                      =   8.4461318816355E-07
(PID.TID 0000.0001) %MON ke_vol                       =   4.6183116617739E+12
(PID.TID 0000.0001) // =======================================================
(PID.TID 0000.0001) // End MONITOR dynamic field statistics
(PID.TID 0000.0001) // =======================================================
(PID.TID 0000.0001) // =======================================================
(PID.TID 0000.0001) // Begin OBCS MONITOR field statistics
(PID.TID 0000.0001) // =======================================================
(PID.TID 0000.0001) %MON obc_N_vVel_max               =   5.8374242560575E-08
(PID.TID 0000.0001) %MON obc_N_vVel_min               =   5.8374242560573E-08
(PID.TID 0000.0001) %MON obc_N_vVel_mean              =   5.8374242560575E-08
(PID.TID 0000.0001) %MON obc_N_vVel_sd                =  -8.9930143195195E-29
(PID.TID 0000.0001) %MON obc_N_vVel_Int               =   3.8527000089979E+00
(PID.TID 0000.0001) // =======================================================
(PID.TID 0000.0001) // End OBCS MONITOR field statistics
(PID.TID 0000.0001) // =======================================================
 cg2d: Sum(rhs),rhsMax =   3.00759757760209E+00  4.53041837936133E+02
(PID.TID 0000.0001)      cg2d_init_res =   4.53739836706088E-06
(PID.TID 0000.0001)      cg2d_iters(min,last) =      -1      77
(PID.TID 0000.0001)      cg2d_last_res =   8.22657331634395E-12
(PID.TID 0000.0001) // =======================================================
(PID.TID 0000.0001) // Begin MONITOR dynamic field statistics
(PID.TID 0000.0001) // =======================================================
(PID.TID 0000.0001) %MON time_tsnumber                =                  1304
(PID.TID 0000.0001) %MON time_secondsf                =   1.3040000000000E+05
(PID.TID 0000.0001) %MON dynstat_eta_max              =   5.7990787726824E+00
(PID.TID 0000.0001) %MON dynstat_eta_min              =  -1.4168993671527E+01
(PID.TID 0000.0001) %MON dynstat_eta_mean             =  -2.5232732117206E+00
(PID.TID 0000.0001) %MON dynstat_eta_sd               =   4.9408474064611E+00
(PID.TID 0000.0001) %MON dynstat_eta_del2             =   1.9059008447254E-01
(PID.TID 0000.0001) %MON dynstat_uvel_max             =   9.3199146375333E-03
(PID.TID 0000.0001) %MON dynstat_uvel_min             =  -4.2428426164356E-02
(PID.TID 0000.0001) %MON dynstat_uvel_mean            =   2.9435390611997E-09
(PID.TID 0000.0001) %MON dynstat_uvel_sd              =   1.1933502768962E-03
(PID.TID 0000.0001) %MON dynstat_uvel_del2            =   1.8345847932899E-06
(PID.TID 0000.0001) %MON dynstat_vvel_max             =   2.7496030399122E-02
(PID.TID 0000.0001) %MON dynstat_vvel_min             =  -1.1476011481388E-02
(PID.TID 0000.0001) %MON dynstat_vvel_mean            =   1.1163385123791E-07
(PID.TID 0000.0001) %MON dynstat_vvel_sd              =   5.4734988437149E-04
(PID.TID 0000.0001) %MON dynstat_vvel_del2            =   1.4543189524975E-06
(PID.TID 0000.0001) %MON dynstat_wvel_max             =   1.6933756022203E-03
(PID.TID 0000.0001) %MON dynstat_wvel_min             =  -2.1629876531341E-03
(PID.TID 0000.0001) %MON dynstat_wvel_mean            =   4.2299056760821E-10
(PID.TID 0000.0001) %MON dynstat_wvel_sd              =   2.7912480974357E-05
(PID.TID 0000.0001) %MON dynstat_wvel_del2            =   1.1159724762061E-07
(PID.TID 0000.0001) %MON dynstat_theta_max            =   1.2000000000000E+00
(PID.TID 0000.0001) %MON dynstat_theta_min            =  -1.0000000000000E+00
(PID.TID 0000.0001) %MON dynstat_theta_mean           =   5.6501376096666E-01
(PID.TID 0000.0001) %MON dynstat_theta_sd             =   8.4888735455377E-01
(PID.TID 0000.0001) %MON dynstat_theta_del2           =   4.0370514501136E-06
(PID.TID 0000.0001) %MON dynstat_salt_max             =   3.4700000000000E+01
(PID.TID 0000.0001) %MON dynstat_salt_min             =   3.4000000000000E+01
(PID.TID 0000.0001) %MON dynstat_salt_mean            =   3.4497919565531E+01
(PID.TID 0000.0001) %MON dynstat_salt_sd              =   2.7009298284758E-01
(PID.TID 0000.0001) %MON dynstat_salt_del2            =   1.5981645371936E-06
(PID.TID 0000.0001) %MON advcfl_uvel_max              =   4.2428426164356E-03
(PID.TID 0000.0001) %MON advcfl_vvel_max              =   2.7496030399122E-03
(PID.TID 0000.0001) %MON advcfl_wvel_max              =   1.0814938265670E-02
(PID.TID 0000.0001) %MON advcfl_W_hf_max              =   1.0814938265670E-02
(PID.TID 0000.0001) %MON pe_b_mean                    =  -6.8172592239910E-01
(PID.TID 0000.0001) %MON ke_max                       =   7.9216872623228E-04
(PID.TID 0000.0001) %MON ke_mean                      =   8.4844869356486E-07
(PID.TID 0000.0001) %MON ke_vol                       =   4.6183117094284E+12
(PID.TID 0000.0001) // =======================================================
(PID.TID 0000.0001) // End MONITOR dynamic field statistics
(PID.TID 0000.0001) // =======================================================
(PID.TID 0000.0001) // =======================================================
(PID.TID 0000.0001) // Begin OBCS MONITOR field statistics
(PID.TID 0000.0001) // =======================================================
(PID.TID 0000.0001) %MON obc_N_vVel_max               =   6.5189327544173E-08
(PID.TID 0000.0001) %MON obc_N_vVel_min               =   6.5189327544172E-08
(PID.TID 0000.0001) %MON obc_N_vVel_mean              =   6.5189327544172E-08
(PID.TID 0000.0001) %MON obc_N_vVel_sd                =   1.8903808877184E-14
(PID.TID 0000.0001) %MON obc_N_vVel_Int               =   4.3024956179153E+00
(PID.TID 0000.0001) // =======================================================
(PID.TID 0000.0001) // End OBCS MONITOR field statistics
(PID.TID 0000.0001) // =======================================================
 cg2d: Sum(rhs),rhsMax =   3.00758809605451E+00  4.53041823172910E+02
(PID.TID 0000.0001)      cg2d_init_res =   4.54512959568878E-06
(PID.TID 0000.0001)      cg2d_iters(min,last) =      -1      77
(PID.TID 0000.0001)      cg2d_last_res =   8.24288880650859E-12
(PID.TID 0000.0001) // =======================================================
(PID.TID 0000.0001) // Begin MONITOR dynamic field statistics
(PID.TID 0000.0001) // =======================================================
(PID.TID 0000.0001) %MON time_tsnumber                =                  1305
(PID.TID 0000.0001) %MON time_secondsf                =   1.3050000000000E+05
(PID.TID 0000.0001) %MON dynstat_eta_max              =   5.7990814646692E+00
(PID.TID 0000.0001) %MON dynstat_eta_min              =  -1.4168976585866E+01
(PID.TID 0000.0001) %MON dynstat_eta_mean             =  -2.5232651747957E+00
(PID.TID 0000.0001) %MON dynstat_eta_sd               =   4.9408451068709E+00
(PID.TID 0000.0001) %MON dynstat_eta_del2             =   1.9059010906240E-01
(PID.TID 0000.0001) %MON dynstat_uvel_max             =   9.3408758441544E-03
(PID.TID 0000.0001) %MON dynstat_uvel_min             =  -4.2517210260519E-02
(PID.TID 0000.0001) %MON dynstat_uvel_mean            =   2.9935928394366E-09
(PID.TID 0000.0001) %MON dynstat_uvel_sd              =   1.1961290468153E-03
(PID.TID 0000.0001) %MON dynstat_uvel_del2            =   1.8389615677412E-06
(PID.TID 0000.0001) %MON dynstat_vvel_max             =   2.7537962918653E-02
(PID.TID 0000.0001) %MON dynstat_vvel_min             =  -1.1509623048426E-02
(PID.TID 0000.0001) %MON dynstat_vvel_mean            =   1.1720683575283E-07
(PID.TID 0000.0001) %MON dynstat_vvel_sd              =   5.4843436179003E-04
(PID.TID 0000.0001) %MON dynstat_vvel_del2            =   1.4571053036167E-06
(PID.TID 0000.0001) %MON dynstat_wvel_max             =   1.6966435924215E-03
(PID.TID 0000.0001) %MON dynstat_wvel_min             =  -2.1677904826288E-03
(PID.TID 0000.0001) %MON dynstat_wvel_mean            =   4.1530769590375E-10
(PID.TID 0000.0001) %MON dynstat_wvel_sd              =   2.7967615439301E-05
(PID.TID 0000.0001) %MON dynstat_wvel_del2            =   1.1178630247664E-07
(PID.TID 0000.0001) %MON dynstat_theta_max            =   1.2000000000000E+00
(PID.TID 0000.0001) %MON dynstat_theta_min            =  -1.0000000000000E+00
(PID.TID 0000.0001) %MON dynstat_theta_mean           =   5.6501286111404E-01
(PID.TID 0000.0001) %MON dynstat_theta_sd             =   8.4888694645068E-01
(PID.TID 0000.0001) %MON dynstat_theta_del2           =   4.0445784054286E-06
(PID.TID 0000.0001) %MON dynstat_salt_max             =   3.4700000000000E+01
(PID.TID 0000.0001) %MON dynstat_salt_min             =   3.4000000000000E+01
(PID.TID 0000.0001) %MON dynstat_salt_mean            =   3.4497919205876E+01
(PID.TID 0000.0001) %MON dynstat_salt_sd              =   2.7009282874479E-01
(PID.TID 0000.0001) %MON dynstat_salt_del2            =   1.6011471828169E-06
(PID.TID 0000.0001) %MON advcfl_uvel_max              =   4.2517210260519E-03
(PID.TID 0000.0001) %MON advcfl_vvel_max              =   2.7537962918653E-03
(PID.TID 0000.0001) %MON advcfl_wvel_max              =   1.0838952413144E-02
(PID.TID 0000.0001) %MON advcfl_W_hf_max              =   1.0838952413144E-02
(PID.TID 0000.0001) %MON pe_b_mean                    =  -6.8172350909954E-01
(PID.TID 0000.0001) %MON ke_max                       =   7.9596809515730E-04
(PID.TID 0000.0001) %MON ke_mean                      =   8.5230035142146E-07
(PID.TID 0000.0001) %MON ke_vol                       =   4.6183117571224E+12
(PID.TID 0000.0001) // =======================================================
(PID.TID 0000.0001) // End MONITOR dynamic field statistics
(PID.TID 0000.0001) // =======================================================
(PID.TID 0000.0001) // =======================================================
(PID.TID 0000.0001) // Begin OBCS MONITOR field statistics
(PID.TID 0000.0001) // =======================================================
(PID.TID 0000.0001) %MON obc_N_vVel_max               =   7.1129466512559E-08
(PID.TID 0000.0001) %MON obc_N_vVel_min               =   7.1129466512556E-08
(PID.TID 0000.0001) %MON obc_N_vVel_mean              =   7.1129466512556E-08
(PID.TID 0000.0001) %MON obc_N_vVel_sd                =   2.0408786293082E-14
(PID.TID 0000.0001) %MON obc_N_vVel_Int               =   4.6945447898287E+00
(PID.TID 0000.0001) // =======================================================
(PID.TID 0000.0001) // End OBCS MONITOR field statistics
(PID.TID 0000.0001) // =======================================================
 cg2d: Sum(rhs),rhsMax =   3.00757860377611E+00  4.53041808455299E+02
(PID.TID 0000.0001)      cg2d_init_res =   4.55284470372933E-06
(PID.TID 0000.0001)      cg2d_iters(min,last) =      -1      77
(PID.TID 0000.0001)      cg2d_last_res =   8.25958866473639E-12
(PID.TID 0000.0001) // =======================================================
(PID.TID 0000.0001) // Begin MONITOR dynamic field statistics
(PID.TID 0000.0001) // =======================================================
(PID.TID 0000.0001) %MON time_tsnumber                =                  1306
(PID.TID 0000.0001) %MON time_secondsf                =   1.3060000000000E+05
(PID.TID 0000.0001) %MON dynstat_eta_max              =   5.7990841514403E+00
(PID.TID 0000.0001) %MON dynstat_eta_min              =  -1.4168959474956E+01
(PID.TID 0000.0001) %MON dynstat_eta_mean             =  -2.5232571291226E+00
(PID.TID 0000.0001) %MON dynstat_eta_sd               =   4.9408428039051E+00
(PID.TID 0000.0001) %MON dynstat_eta_del2             =   1.9059013369272E-01
(PID.TID 0000.0001) %MON dynstat_uvel_max             =   9.3618652112228E-03
(PID.TID 0000.0001) %MON dynstat_uvel_min             =  -4.2606085594803E-02
(PID.TID 0000.0001) %MON dynstat_uvel_mean            =   3.0477787808288E-09
(PID.TID 0000.0001) %MON dynstat_uvel_sd              =   1.1989133115421E-03
(PID.TID 0000.0001) %MON dynstat_uvel_del2            =   1.8433478710466E-06
(PID.TID 0000.0001) %MON dynstat_vvel_max             =   2.7579905641642E-02
(PID.TID 0000.0001) %MON dynstat_vvel_min             =  -1.1543305309786E-02
(PID.TID 0000.0001) %MON dynstat_vvel_mean            =   1.2170649232768E-07
(PID.TID 0000.0001) %MON dynstat_vvel_sd              =   5.4952068192358E-04
(PID.TID 0000.0001) %MON dynstat_vvel_del2            =   1.4598942865300E-06
(PID.TID 0000.0001) %MON dynstat_wvel_max             =   1.6999144319658E-03
(PID.TID 0000.0001) %MON dynstat_wvel_min             =  -2.1725932836819E-03
(PID.TID 0000.0001) %MON dynstat_wvel_mean            =   4.0722210930288E-10
(PID.TID 0000.0001) %MON dynstat_wvel_sd              =   2.8022348852027E-05
(PID.TID 0000.0001) %MON dynstat_wvel_del2            =   1.1197252913962E-07
(PID.TID 0000.0001) %MON dynstat_theta_max            =   1.2000000000000E+00
(PID.TID 0000.0001) %MON dynstat_theta_min            =  -1.0000000000000E+00
(PID.TID 0000.0001) %MON dynstat_theta_mean           =   5.6501195971044E-01
(PID.TID 0000.0001) %MON dynstat_theta_sd             =   8.4888653760772E-01
(PID.TID 0000.0001) %MON dynstat_theta_del2           =   4.0521158836561E-06
(PID.TID 0000.0001) %MON dynstat_salt_max             =   3.4700000000000E+01
(PID.TID 0000.0001) %MON dynstat_salt_min             =   3.4000000000000E+01
(PID.TID 0000.0001) %MON dynstat_salt_mean            =   3.4497918845597E+01
(PID.TID 0000.0001) %MON dynstat_salt_sd              =   2.7009267436503E-01
(PID.TID 0000.0001) %MON dynstat_salt_del2            =   1.6041339239783E-06
(PID.TID 0000.0001) %MON advcfl_uvel_max              =   4.2606085594803E-03
(PID.TID 0000.0001) %MON advcfl_vvel_max              =   2.7579905641642E-03
(PID.TID 0000.0001) %MON advcfl_wvel_max              =   1.0862966418409E-02
(PID.TID 0000.0001) %MON advcfl_W_hf_max              =   1.0862966418409E-02
(PID.TID 0000.0001) %MON pe_b_mean                    =  -6.8172109230662E-01
(PID.TID 0000.0001) %MON ke_max                       =   7.9978275696219E-04
(PID.TID 0000.0001) %MON ke_mean                      =   8.5616823816975E-07
(PID.TID 0000.0001) %MON ke_vol                       =   4.6183118048617E+12
(PID.TID 0000.0001) // =======================================================
(PID.TID 0000.0001) // End MONITOR dynamic field statistics
(PID.TID 0000.0001) // =======================================================
(PID.TID 0000.0001) // =======================================================
(PID.TID 0000.0001) // Begin OBCS MONITOR field statistics
(PID.TID 0000.0001) // =======================================================
(PID.TID 0000.0001) %MON obc_N_vVel_max               =   7.6096001936519E-08
(PID.TID 0000.0001) %MON obc_N_vVel_min               =   7.6096001936518E-08
(PID.TID 0000.0001) %MON obc_N_vVel_mean              =   7.6096001936519E-08
(PID.TID 0000.0001) %MON obc_N_vVel_sd                =  -4.1415197524103E-28
(PID.TID 0000.0001) %MON obc_N_vVel_Int               =   5.0223361278103E+00
(PID.TID 0000.0001) // =======================================================
(PID.TID 0000.0001) // End OBCS MONITOR field statistics
(PID.TID 0000.0001) // =======================================================
 cg2d: Sum(rhs),rhsMax =   3.00756909962839E+00  4.53041793740881E+02
(PID.TID 0000.0001)      cg2d_init_res =   4.56067238256831E-06
(PID.TID 0000.0001)      cg2d_iters(min,last) =      -1      77
(PID.TID 0000.0001)      cg2d_last_res =   8.27659036056511E-12
(PID.TID 0000.0001) // =======================================================
(PID.TID 0000.0001) // Begin MONITOR dynamic field statistics
(PID.TID 0000.0001) // =======================================================
(PID.TID 0000.0001) %MON time_tsnumber                =                  1307
(PID.TID 0000.0001) %MON time_secondsf                =   1.3070000000000E+05
(PID.TID 0000.0001) %MON dynstat_eta_max              =   5.7990868349946E+00
(PID.TID 0000.0001) %MON dynstat_eta_min              =  -1.4168942336316E+01
(PID.TID 0000.0001) %MON dynstat_eta_mean             =  -2.5232490735098E+00
(PID.TID 0000.0001) %MON dynstat_eta_sd               =   4.9408404971163E+00
(PID.TID 0000.0001) %MON dynstat_eta_del2             =   1.9059015836280E-01
(PID.TID 0000.0001) %MON dynstat_uvel_max             =   9.3828826113391E-03
(PID.TID 0000.0001) %MON dynstat_uvel_min             =  -4.2695052277952E-02
(PID.TID 0000.0001) %MON dynstat_uvel_mean            =   3.1052560468277E-09
(PID.TID 0000.0001) %MON dynstat_uvel_sd              =   1.2017030781904E-03
(PID.TID 0000.0001) %MON dynstat_uvel_del2            =   1.8477437171247E-06
(PID.TID 0000.0001) %MON dynstat_vvel_max             =   2.7621858563831E-02
(PID.TID 0000.0001) %MON dynstat_vvel_min             =  -1.1577058170007E-02
(PID.TID 0000.0001) %MON dynstat_vvel_mean            =   1.2506647099309E-07
(PID.TID 0000.0001) %MON dynstat_vvel_sd              =   5.5060888193249E-04
(PID.TID 0000.0001) %MON dynstat_vvel_del2            =   1.4626861930546E-06
(PID.TID 0000.0001) %MON dynstat_wvel_max             =   1.7031881161627E-03
(PID.TID 0000.0001) %MON dynstat_wvel_min             =  -2.1773959701559E-03
(PID.TID 0000.0001) %MON dynstat_wvel_mean            =   3.9887777732512E-10
(PID.TID 0000.0001) %MON dynstat_wvel_sd              =   2.8076886489665E-05
(PID.TID 0000.0001) %MON dynstat_wvel_del2            =   1.1215714403672E-07
(PID.TID 0000.0001) %MON dynstat_theta_max            =   1.2000000000000E+00
(PID.TID 0000.0001) %MON dynstat_theta_min            =  -1.0000000000000E+00
(PID.TID 0000.0001) %MON dynstat_theta_mean           =   5.6501105675245E-01
(PID.TID 0000.0001) %MON dynstat_theta_sd             =   8.4888612802486E-01
(PID.TID 0000.0001) %MON dynstat_theta_del2           =   4.0596636003961E-06
(PID.TID 0000.0001) %MON dynstat_salt_max             =   3.4700000000000E+01
(PID.TID 0000.0001) %MON dynstat_salt_min             =   3.4000000000000E+01
(PID.TID 0000.0001) %MON dynstat_salt_mean            =   3.4497918484694E+01
(PID.TID 0000.0001) %MON dynstat_salt_sd              =   2.7009251970830E-01
(PID.TID 0000.0001) %MON dynstat_salt_del2            =   1.6071246988789E-06
(PID.TID 0000.0001) %MON advcfl_uvel_max              =   4.2695052277952E-03
(PID.TID 0000.0001) %MON advcfl_vvel_max              =   2.7621858563831E-03
(PID.TID 0000.0001) %MON advcfl_wvel_max              =   1.0886979850779E-02
(PID.TID 0000.0001) %MON advcfl_W_hf_max              =   1.0886979850779E-02
(PID.TID 0000.0001) %MON pe_b_mean                    =  -6.8171867176526E-01
(PID.TID 0000.0001) %MON ke_max                       =   8.0361275772304E-04
(PID.TID 0000.0001) %MON ke_mean                      =   8.6005243367445E-07
(PID.TID 0000.0001) %MON ke_vol                       =   4.6183118526530E+12
(PID.TID 0000.0001) // =======================================================
(PID.TID 0000.0001) // End MONITOR dynamic field statistics
(PID.TID 0000.0001) // =======================================================
(PID.TID 0000.0001) // =======================================================
(PID.TID 0000.0001) // Begin OBCS MONITOR field statistics
(PID.TID 0000.0001) // =======================================================
(PID.TID 0000.0001) %MON obc_N_vVel_max               =   8.0014109085446E-08
(PID.TID 0000.0001) %MON obc_N_vVel_min               =   8.0014109085444E-08
(PID.TID 0000.0001) %MON obc_N_vVel_mean              =   8.0014109085446E-08
(PID.TID 0000.0001) %MON obc_N_vVel_sd                =  -5.1828161473020E-28
(PID.TID 0000.0001) %MON obc_N_vVel_Int               =   5.2809311996394E+00
(PID.TID 0000.0001) // =======================================================
(PID.TID 0000.0001) // End OBCS MONITOR field statistics
(PID.TID 0000.0001) // =======================================================
 cg2d: Sum(rhs),rhsMax =   3.00755958239212E+00  4.53041778987784E+02
(PID.TID 0000.0001)      cg2d_init_res =   4.56857792411598E-06
(PID.TID 0000.0001)      cg2d_iters(min,last) =      -1      77
(PID.TID 0000.0001)      cg2d_last_res =   8.29380796893490E-12
(PID.TID 0000.0001) // =======================================================
(PID.TID 0000.0001) // Begin MONITOR dynamic field statistics
(PID.TID 0000.0001) // =======================================================
(PID.TID 0000.0001) %MON time_tsnumber                =                  1308
(PID.TID 0000.0001) %MON time_secondsf                =   1.3080000000000E+05
(PID.TID 0000.0001) %MON dynstat_eta_max              =   5.7990895174209E+00
(PID.TID 0000.0001) %MON dynstat_eta_min              =  -1.4168925167377E+01
(PID.TID 0000.0001) %MON dynstat_eta_mean             =  -2.5232410067013E+00
(PID.TID 0000.0001) %MON dynstat_eta_sd               =   4.9408381860549E+00
(PID.TID 0000.0001) %MON dynstat_eta_del2             =   1.9059018307182E-01
(PID.TID 0000.0001) %MON dynstat_uvel_max             =   9.4039279198279E-03
(PID.TID 0000.0001) %MON dynstat_uvel_min             =  -4.2784110419170E-02
(PID.TID 0000.0001) %MON dynstat_uvel_mean            =   3.1651248122864E-09
(PID.TID 0000.0001) %MON dynstat_uvel_sd              =   1.2044983538354E-03
(PID.TID 0000.0001) %MON dynstat_uvel_del2            =   1.8521491198574E-06
(PID.TID 0000.0001) %MON dynstat_vvel_max             =   2.7663821680521E-02
(PID.TID 0000.0001) %MON dynstat_vvel_min             =  -1.1610881524732E-02
(PID.TID 0000.0001) %MON dynstat_vvel_mean            =   1.2724199310228E-07
(PID.TID 0000.0001) %MON dynstat_vvel_sd              =   5.5169900189182E-04
(PID.TID 0000.0001) %MON dynstat_vvel_del2            =   1.4654813293942E-06
(PID.TID 0000.0001) %MON dynstat_wvel_max             =   1.7064646403390E-03
(PID.TID 0000.0001) %MON dynstat_wvel_min             =  -2.1821984594557E-03
(PID.TID 0000.0001) %MON dynstat_wvel_mean            =   3.9044326088906E-10
(PID.TID 0000.0001) %MON dynstat_wvel_sd              =   2.8131445807942E-05
(PID.TID 0000.0001) %MON dynstat_wvel_del2            =   1.1234147997280E-07
(PID.TID 0000.0001) %MON dynstat_theta_max            =   1.2000000000000E+00
(PID.TID 0000.0001) %MON dynstat_theta_min            =  -1.0000000000000E+00
(PID.TID 0000.0001) %MON dynstat_theta_mean           =   5.6501015223649E-01
(PID.TID 0000.0001) %MON dynstat_theta_sd             =   8.4888571770215E-01
(PID.TID 0000.0001) %MON dynstat_theta_del2           =   4.0672212445221E-06
(PID.TID 0000.0001) %MON dynstat_salt_max             =   3.4700000000000E+01
(PID.TID 0000.0001) %MON dynstat_salt_min             =   3.4000000000000E+01
(PID.TID 0000.0001) %MON dynstat_salt_mean            =   3.4497918123164E+01
(PID.TID 0000.0001) %MON dynstat_salt_sd              =   2.7009236477476E-01
(PID.TID 0000.0001) %MON dynstat_salt_del2            =   1.6101194385909E-06
(PID.TID 0000.0001) %MON advcfl_uvel_max              =   4.2784110419170E-03
(PID.TID 0000.0001) %MON advcfl_vvel_max              =   2.7663821680521E-03
(PID.TID 0000.0001) %MON advcfl_wvel_max              =   1.0910992297278E-02
(PID.TID 0000.0001) %MON advcfl_W_hf_max              =   1.0910992297278E-02
(PID.TID 0000.0001) %MON pe_b_mean                    =  -6.8171624721201E-01
(PID.TID 0000.0001) %MON ke_max                       =   8.0745814384307E-04
(PID.TID 0000.0001) %MON ke_mean                      =   8.6395301970771E-07
(PID.TID 0000.0001) %MON ke_vol                       =   4.6183119005034E+12
(PID.TID 0000.0001) // =======================================================
(PID.TID 0000.0001) // End MONITOR dynamic field statistics
(PID.TID 0000.0001) // =======================================================
(PID.TID 0000.0001) // =======================================================
(PID.TID 0000.0001) // Begin OBCS MONITOR field statistics
(PID.TID 0000.0001) // =======================================================
(PID.TID 0000.0001) %MON obc_N_vVel_max               =   8.2826464995833E-08
(PID.TID 0000.0001) %MON obc_N_vVel_min               =   8.2826464995830E-08
(PID.TID 0000.0001) %MON obc_N_vVel_mean              =   8.2826464995830E-08
(PID.TID 0000.0001) %MON obc_N_vVel_sd                =   2.6422375009083E-14
(PID.TID 0000.0001) %MON obc_N_vVel_Int               =   5.4665466897248E+00
(PID.TID 0000.0001) // =======================================================
(PID.TID 0000.0001) // End OBCS MONITOR field statistics
(PID.TID 0000.0001) // =======================================================
 cg2d: Sum(rhs),rhsMax =   3.00755005079367E+00  4.53041764155394E+02
(PID.TID 0000.0001)      cg2d_init_res =   4.57657164315887E-06
(PID.TID 0000.0001)      cg2d_iters(min,last) =      -1      77
(PID.TID 0000.0001)      cg2d_last_res =   8.31126143107954E-12
(PID.TID 0000.0001) // =======================================================
(PID.TID 0000.0001) // Begin MONITOR dynamic field statistics
(PID.TID 0000.0001) // =======================================================
(PID.TID 0000.0001) %MON time_tsnumber                =                  1309
(PID.TID 0000.0001) %MON time_secondsf                =   1.3090000000000E+05
(PID.TID 0000.0001) %MON dynstat_eta_max              =   5.7990922008384E+00
(PID.TID 0000.0001) %MON dynstat_eta_min              =  -1.4168907965541E+01
(PID.TID 0000.0001) %MON dynstat_eta_mean             =  -2.5232329274022E+00
(PID.TID 0000.0001) %MON dynstat_eta_sd               =   4.9408358702796E+00
(PID.TID 0000.0001) %MON dynstat_eta_del2             =   1.9059020781902E-01
(PID.TID 0000.0001) %MON dynstat_uvel_max             =   9.4250010103343E-03
(PID.TID 0000.0001) %MON dynstat_uvel_min             =  -4.2873260129094E-02
(PID.TID 0000.0001) %MON dynstat_uvel_mean            =   3.2264442458680E-09
(PID.TID 0000.0001) %MON dynstat_uvel_sd              =   1.2072991455124E-03
(PID.TID 0000.0001) %MON dynstat_uvel_del2            =   1.8565640930609E-06
(PID.TID 0000.0001) %MON dynstat_vvel_max             =   2.7705794989580E-02
(PID.TID 0000.0001) %MON dynstat_vvel_min             =  -1.1644775264681E-02
(PID.TID 0000.0001) %MON dynstat_vvel_mean            =   1.2821057851213E-07
(PID.TID 0000.0001) %MON dynstat_vvel_sd              =   5.5279108170832E-04
(PID.TID 0000.0001) %MON dynstat_vvel_del2            =   1.4682799915720E-06
(PID.TID 0000.0001) %MON dynstat_wvel_max             =   1.7097439997881E-03
(PID.TID 0000.0001) %MON dynstat_wvel_min             =  -2.1870006685573E-03
(PID.TID 0000.0001) %MON dynstat_wvel_mean            =   3.8208423332655E-10
(PID.TID 0000.0001) %MON dynstat_wvel_sd              =   2.8186239497329E-05
(PID.TID 0000.0001) %MON dynstat_wvel_del2            =   1.1252687915168E-07
(PID.TID 0000.0001) %MON dynstat_theta_max            =   1.2000000000000E+00
(PID.TID 0000.0001) %MON dynstat_theta_min            =  -1.0000000000000E+00
(PID.TID 0000.0001) %MON dynstat_theta_mean           =   5.6500924615902E-01
(PID.TID 0000.0001) %MON dynstat_theta_sd             =   8.4888530663965E-01
(PID.TID 0000.0001) %MON dynstat_theta_del2           =   4.0747885059904E-06
(PID.TID 0000.0001) %MON dynstat_salt_max             =   3.4700000000000E+01
(PID.TID 0000.0001) %MON dynstat_salt_min             =   3.4000000000000E+01
(PID.TID 0000.0001) %MON dynstat_salt_mean            =   3.4497917761007E+01
(PID.TID 0000.0001) %MON dynstat_salt_sd              =   2.7009220956441E-01
(PID.TID 0000.0001) %MON dynstat_salt_del2            =   1.6131180728321E-06
(PID.TID 0000.0001) %MON advcfl_uvel_max              =   4.2873260129094E-03
(PID.TID 0000.0001) %MON advcfl_vvel_max              =   2.7705794989580E-03
(PID.TID 0000.0001) %MON advcfl_wvel_max              =   1.0935003342786E-02
(PID.TID 0000.0001) %MON advcfl_W_hf_max              =   1.0935003342786E-02
(PID.TID 0000.0001) %MON pe_b_mean                    =  -6.8171381838018E-01
(PID.TID 0000.0001) %MON ke_max                       =   8.1131896186397E-04
(PID.TID 0000.0001) %MON ke_mean                      =   8.6787007826028E-07
(PID.TID 0000.0001) %MON ke_vol                       =   4.6183119484202E+12
(PID.TID 0000.0001) // =======================================================
(PID.TID 0000.0001) // End MONITOR dynamic field statistics
(PID.TID 0000.0001) // =======================================================
(PID.TID 0000.0001) // =======================================================
(PID.TID 0000.0001) // Begin OBCS MONITOR field statistics
(PID.TID 0000.0001) // =======================================================
(PID.TID 0000.0001) %MON obc_N_vVel_max               =   8.4496998074535E-08
(PID.TID 0000.0001) %MON obc_N_vVel_min               =   8.4496998074534E-08
(PID.TID 0000.0001) %MON obc_N_vVel_mean              =   8.4496998074535E-08
(PID.TID 0000.0001) %MON obc_N_vVel_sd                =  -2.6821270777514E-28
(PID.TID 0000.0001) %MON obc_N_vVel_Int               =   5.5768018729193E+00
(PID.TID 0000.0001) // =======================================================
(PID.TID 0000.0001) // End OBCS MONITOR field statistics
(PID.TID 0000.0001) // =======================================================
 cg2d: Sum(rhs),rhsMax =   3.00754050352697E+00  4.53041749205084E+02
(PID.TID 0000.0001)      cg2d_init_res =   4.58466122221317E-06
(PID.TID 0000.0001)      cg2d_iters(min,last) =      -1      77
(PID.TID 0000.0001)      cg2d_last_res =   8.32896187048138E-12
(PID.TID 0000.0001) // =======================================================
(PID.TID 0000.0001) // Begin MONITOR dynamic field statistics
(PID.TID 0000.0001) // =======================================================
(PID.TID 0000.0001) %MON time_tsnumber                =                  1310
(PID.TID 0000.0001) %MON time_secondsf                =   1.3100000000000E+05
(PID.TID 0000.0001) %MON dynstat_eta_max              =   5.7990948873570E+00
(PID.TID 0000.0001) %MON dynstat_eta_min              =  -1.4168890728228E+01
(PID.TID 0000.0001) %MON dynstat_eta_mean             =  -2.5232248343019E+00
(PID.TID 0000.0001) %MON dynstat_eta_sd               =   4.9408335493643E+00
(PID.TID 0000.0001) %MON dynstat_eta_del2             =   1.9059023260368E-01
(PID.TID 0000.0001) %MON dynstat_uvel_max             =   9.4461017546656E-03
(PID.TID 0000.0001) %MON dynstat_uvel_min             =  -4.2962501520208E-02
(PID.TID 0000.0001) %MON dynstat_uvel_mean            =   3.2882547966841E-09
(PID.TID 0000.0001) %MON dynstat_uvel_sd              =   1.2101054602163E-03
(PID.TID 0000.0001) %MON dynstat_uvel_del2            =   1.8609886505830E-06
(PID.TID 0000.0001) %MON dynstat_vvel_max             =   2.7747778491567E-02
(PID.TID 0000.0001) %MON dynstat_vvel_min             =  -1.1678739275066E-02
(PID.TID 0000.0001) %MON dynstat_vvel_mean            =   1.2797227579900E-07
(PID.TID 0000.0001) %MON dynstat_vvel_sd              =   5.5388515815019E-04
(PID.TID 0000.0001) %MON dynstat_vvel_del2            =   1.4710824421539E-06
(PID.TID 0000.0001) %MON dynstat_wvel_max             =   1.7130261896222E-03
(PID.TID 0000.0001) %MON dynstat_wvel_min             =  -2.1918025139802E-03
(PID.TID 0000.0001) %MON dynstat_wvel_mean            =   3.7396473610905E-10
(PID.TID 0000.0001) %MON dynstat_wvel_sd              =   2.8241459232144E-05
(PID.TID 0000.0001) %MON dynstat_wvel_del2            =   1.1271458666283E-07
(PID.TID 0000.0001) %MON dynstat_theta_max            =   1.2000000000000E+00
(PID.TID 0000.0001) %MON dynstat_theta_min            =  -1.0000000000000E+00
(PID.TID 0000.0001) %MON dynstat_theta_mean           =   5.6500833851646E-01
(PID.TID 0000.0001) %MON dynstat_theta_sd             =   8.4888489483704E-01
(PID.TID 0000.0001) %MON dynstat_theta_del2           =   4.0823651132788E-06
(PID.TID 0000.0001) %MON dynstat_salt_max             =   3.4700000000000E+01
(PID.TID 0000.0001) %MON dynstat_salt_min             =   3.4000000000000E+01
(PID.TID 0000.0001) %MON dynstat_salt_mean            =   3.4497917398222E+01
(PID.TID 0000.0001) %MON dynstat_salt_sd              =   2.7009205407716E-01
(PID.TID 0000.0001) %MON dynstat_salt_del2            =   1.6161205402348E-06
(PID.TID 0000.0001) %MON advcfl_uvel_max              =   4.2962501520208E-03
(PID.TID 0000.0001) %MON advcfl_vvel_max              =   2.7747778491567E-03
(PID.TID 0000.0001) %MON advcfl_wvel_max              =   1.0959012569901E-02
(PID.TID 0000.0001) %MON advcfl_W_hf_max              =   1.0959012569901E-02
(PID.TID 0000.0001) %MON pe_b_mean                    =  -6.8171138500448E-01
(PID.TID 0000.0001) %MON ke_max                       =   8.1519525847565E-04
(PID.TID 0000.0001) %MON ke_mean                      =   8.7180368989611E-07
(PID.TID 0000.0001) %MON ke_vol                       =   4.6183119964112E+12
(PID.TID 0000.0001) // =======================================================
(PID.TID 0000.0001) // End MONITOR dynamic field statistics
(PID.TID 0000.0001) // =======================================================
(PID.TID 0000.0001) // =======================================================
(PID.TID 0000.0001) // Begin OBCS MONITOR field statistics
(PID.TID 0000.0001) // =======================================================
(PID.TID 0000.0001) %MON obc_N_vVel_max               =   8.5010985151000E-08
(PID.TID 0000.0001) %MON obc_N_vVel_min               =   8.5010985150998E-08
(PID.TID 0000.0001) %MON obc_N_vVel_mean              =   8.5010985150998E-08
(PID.TID 0000.0001) %MON obc_N_vVel_sd                =   2.5152861586453E-14
(PID.TID 0000.0001) %MON obc_N_vVel_Int               =   5.6107250199659E+00
(PID.TID 0000.0001) // =======================================================
(PID.TID 0000.0001) // End OBCS MONITOR field statistics
(PID.TID 0000.0001) // =======================================================
 cg2d: Sum(rhs),rhsMax =   3.00753093927636E+00  4.53041734100805E+02
(PID.TID 0000.0001)      cg2d_init_res =   4.59285095456740E-06
(PID.TID 0000.0001)      cg2d_iters(min,last) =      -1      77
(PID.TID 0000.0001)      cg2d_last_res =   8.34693238627369E-12
(PID.TID 0000.0001) // =======================================================
(PID.TID 0000.0001) // Begin MONITOR dynamic field statistics
(PID.TID 0000.0001) // =======================================================
(PID.TID 0000.0001) %MON time_tsnumber                =                  1311
(PID.TID 0000.0001) %MON time_secondsf                =   1.3110000000000E+05
(PID.TID 0000.0001) %MON dynstat_eta_max              =   5.7990975790513E+00
(PID.TID 0000.0001) %MON dynstat_eta_min              =  -1.4168873452900E+01
(PID.TID 0000.0001) %MON dynstat_eta_mean             =  -2.5232167260955E+00
(PID.TID 0000.0001) %MON dynstat_eta_sd               =   4.9408312229044E+00
(PID.TID 0000.0001) %MON dynstat_eta_del2             =   1.9059025742523E-01
(PID.TID 0000.0001) %MON dynstat_uvel_max             =   9.4672300224232E-03
(PID.TID 0000.0001) %MON dynstat_uvel_min             =  -4.3051834706412E-02
(PID.TID 0000.0001) %MON dynstat_uvel_mean            =   3.3495972854797E-09
(PID.TID 0000.0001) %MON dynstat_uvel_sd              =   1.2129173048993E-03
(PID.TID 0000.0001) %MON dynstat_uvel_del2            =   1.8654228063278E-06
(PID.TID 0000.0001) %MON dynstat_vvel_max             =   2.7789772189712E-02
(PID.TID 0000.0001) %MON dynstat_vvel_min             =  -1.1712773435416E-02
(PID.TID 0000.0001) %MON dynstat_vvel_mean            =   1.2654950150425E-07
(PID.TID 0000.0001) %MON dynstat_vvel_sd              =   5.5498126223210E-04
(PID.TID 0000.0001) %MON dynstat_vvel_del2            =   1.4738888900334E-06
(PID.TID 0000.0001) %MON dynstat_wvel_max             =   1.7163112048147E-03
(PID.TID 0000.0001) %MON dynstat_wvel_min             =  -2.1966039118656E-03
(PID.TID 0000.0001) %MON dynstat_wvel_mean            =   3.6624312534023E-10
(PID.TID 0000.0001) %MON dynstat_wvel_sd              =   2.8297261280034E-05
(PID.TID 0000.0001) %MON dynstat_wvel_del2            =   1.1290565206725E-07
(PID.TID 0000.0001) %MON dynstat_theta_max            =   1.2000000000000E+00
(PID.TID 0000.0001) %MON dynstat_theta_min            =  -1.0000000000000E+00
(PID.TID 0000.0001) %MON dynstat_theta_mean           =   5.6500742930500E-01
(PID.TID 0000.0001) %MON dynstat_theta_sd             =   8.4888448229440E-01
(PID.TID 0000.0001) %MON dynstat_theta_del2           =   4.0899508520732E-06
(PID.TID 0000.0001) %MON dynstat_salt_max             =   3.4700000000000E+01
(PID.TID 0000.0001) %MON dynstat_salt_min             =   3.4000000000000E+01
(PID.TID 0000.0001) %MON dynstat_salt_mean            =   3.4497917034805E+01
(PID.TID 0000.0001) %MON dynstat_salt_sd              =   2.7009189831321E-01
(PID.TID 0000.0001) %MON dynstat_salt_del2            =   1.6191267938370E-06
(PID.TID 0000.0001) %MON advcfl_uvel_max              =   4.3051834706412E-03
(PID.TID 0000.0001) %MON advcfl_vvel_max              =   2.7789772189712E-03
(PID.TID 0000.0001) %MON advcfl_wvel_max              =   1.0983019559328E-02
(PID.TID 0000.0001) %MON advcfl_W_hf_max              =   1.0983019559328E-02
(PID.TID 0000.0001) %MON pe_b_mean                    =  -6.8170894682538E-01
(PID.TID 0000.0001) %MON ke_max                       =   8.1908708050917E-04
(PID.TID 0000.0001) %MON ke_mean                      =   8.7575393228210E-07
(PID.TID 0000.0001) %MON ke_vol                       =   4.6183120444842E+12
(PID.TID 0000.0001) // =======================================================
(PID.TID 0000.0001) // End MONITOR dynamic field statistics
(PID.TID 0000.0001) // =======================================================
(PID.TID 0000.0001) // =======================================================
(PID.TID 0000.0001) // Begin OBCS MONITOR field statistics
(PID.TID 0000.0001) // =======================================================
(PID.TID 0000.0001) %MON obc_N_vVel_max               =   8.4375319050192E-08
(PID.TID 0000.0001) %MON obc_N_vVel_min               =   8.4375319050190E-08
(PID.TID 0000.0001) %MON obc_N_vVel_mean              =   8.4375319050190E-08
(PID.TID 0000.0001) %MON obc_N_vVel_sd                =   2.2713763052708E-14
(PID.TID 0000.0001) %MON obc_N_vVel_Int               =   5.5687710573125E+00
(PID.TID 0000.0001) // =======================================================
(PID.TID 0000.0001) // End OBCS MONITOR field statistics
(PID.TID 0000.0001) // =======================================================
 cg2d: Sum(rhs),rhsMax =   3.00752135674294E+00  4.53041718809684E+02
(PID.TID 0000.0001)      cg2d_init_res =   4.60114219461405E-06
(PID.TID 0000.0001)      cg2d_iters(min,last) =      -1      77
(PID.TID 0000.0001)      cg2d_last_res =   8.36516298635097E-12
(PID.TID 0000.0001) // =======================================================
(PID.TID 0000.0001) // Begin MONITOR dynamic field statistics
(PID.TID 0000.0001) // =======================================================
(PID.TID 0000.0001) %MON time_tsnumber                =                  1312
(PID.TID 0000.0001) %MON time_secondsf                =   1.3120000000000E+05
(PID.TID 0000.0001) %MON dynstat_eta_max              =   5.7991002778973E+00
(PID.TID 0000.0001) %MON dynstat_eta_min              =  -1.4168856137124E+01
(PID.TID 0000.0001) %MON dynstat_eta_mean             =  -2.5232086015105E+00
(PID.TID 0000.0001) %MON dynstat_eta_sd               =   4.9408288905280E+00
(PID.TID 0000.0001) %MON dynstat_eta_del2             =   1.9059028228323E-01
(PID.TID 0000.0001) %MON dynstat_uvel_max             =   9.4883856814754E-03
(PID.TID 0000.0001) %MON dynstat_uvel_min             =  -4.3141259802932E-02
(PID.TID 0000.0001) %MON dynstat_uvel_mean            =   3.4095364953327E-09
(PID.TID 0000.0001) %MON dynstat_uvel_sd              =   1.2157346864699E-03
(PID.TID 0000.0001) %MON dynstat_uvel_del2            =   1.8698665743756E-06
(PID.TID 0000.0001) %MON dynstat_vvel_max             =   2.7831776089756E-02
(PID.TID 0000.0001) %MON dynstat_vvel_min             =  -1.1746877620197E-02
(PID.TID 0000.0001) %MON dynstat_vvel_mean            =   1.2398647448362E-07
(PID.TID 0000.0001) %MON dynstat_vvel_sd              =   5.5607941715555E-04
(PID.TID 0000.0001) %MON dynstat_vvel_del2            =   1.4766994748798E-06
(PID.TID 0000.0001) %MON dynstat_wvel_max             =   1.7195990401828E-03
(PID.TID 0000.0001) %MON dynstat_wvel_min             =  -2.2014047779271E-03
(PID.TID 0000.0001) %MON dynstat_wvel_mean            =   3.5906886695406E-10
(PID.TID 0000.0001) %MON dynstat_wvel_sd              =   2.8353755061400E-05
(PID.TID 0000.0001) %MON dynstat_wvel_del2            =   1.1310084725239E-07
(PID.TID 0000.0001) %MON dynstat_theta_max            =   1.2000000000000E+00
(PID.TID 0000.0001) %MON dynstat_theta_min            =  -1.0000000000000E+00
(PID.TID 0000.0001) %MON dynstat_theta_mean           =   5.6500651852082E-01
(PID.TID 0000.0001) %MON dynstat_theta_sd             =   8.4888406901152E-01
(PID.TID 0000.0001) %MON dynstat_theta_del2           =   4.0975455550437E-06
(PID.TID 0000.0001) %MON dynstat_salt_max             =   3.4700000000000E+01
(PID.TID 0000.0001) %MON dynstat_salt_min             =   3.4000000000000E+01
(PID.TID 0000.0001) %MON dynstat_salt_mean            =   3.4497916670758E+01
(PID.TID 0000.0001) %MON dynstat_salt_sd              =   2.7009174227249E-01
(PID.TID 0000.0001) %MON dynstat_salt_del2            =   1.6221368057671E-06
(PID.TID 0000.0001) %MON advcfl_uvel_max              =   4.3141259802932E-03
(PID.TID 0000.0001) %MON advcfl_vvel_max              =   2.7831776089756E-03
(PID.TID 0000.0001) %MON advcfl_wvel_max              =   1.1007023889636E-02
(PID.TID 0000.0001) %MON advcfl_W_hf_max              =   1.1007023889636E-02
(PID.TID 0000.0001) %MON pe_b_mean                    =  -6.8170650359431E-01
(PID.TID 0000.0001) %MON ke_max                       =   8.2299447493865E-04
(PID.TID 0000.0001) %MON ke_mean                      =   8.7972087900986E-07
(PID.TID 0000.0001) %MON ke_vol                       =   4.6183120926470E+12
(PID.TID 0000.0001) // =======================================================
(PID.TID 0000.0001) // End MONITOR dynamic field statistics
(PID.TID 0000.0001) // =======================================================
(PID.TID 0000.0001) // =======================================================
(PID.TID 0000.0001) // Begin OBCS MONITOR field statistics
(PID.TID 0000.0001) // =======================================================
(PID.TID 0000.0001) %MON obc_N_vVel_max               =   8.2618240416885E-08
(PID.TID 0000.0001) %MON obc_N_vVel_min               =   8.2618240416883E-08
(PID.TID 0000.0001) %MON obc_N_vVel_mean              =   8.2618240416885E-08
(PID.TID 0000.0001) %MON obc_N_vVel_sd                =  -6.4765480318645E-28
(PID.TID 0000.0001) %MON obc_N_vVel_Int               =   5.4528038675144E+00
(PID.TID 0000.0001) // =======================================================
(PID.TID 0000.0001) // End OBCS MONITOR field statistics
(PID.TID 0000.0001) // =======================================================
 cg2d: Sum(rhs),rhsMax =   3.00751175466822E+00  4.53041703302535E+02
(PID.TID 0000.0001)      cg2d_init_res =   4.60952098732810E-06
(PID.TID 0000.0001)      cg2d_iters(min,last) =      -1      77
(PID.TID 0000.0001)      cg2d_last_res =   8.38360913414525E-12
(PID.TID 0000.0001) // =======================================================
(PID.TID 0000.0001) // Begin MONITOR dynamic field statistics
(PID.TID 0000.0001) // =======================================================
(PID.TID 0000.0001) %MON time_tsnumber                =                  1313
(PID.TID 0000.0001) %MON time_secondsf                =   1.3130000000000E+05
(PID.TID 0000.0001) %MON dynstat_eta_max              =   5.7991029857682E+00
(PID.TID 0000.0001) %MON dynstat_eta_min              =  -1.4168838778615E+01
(PID.TID 0000.0001) %MON dynstat_eta_mean             =  -2.5232004593283E+00
(PID.TID 0000.0001) %MON dynstat_eta_sd               =   4.9408265519010E+00
(PID.TID 0000.0001) %MON dynstat_eta_del2             =   1.9059030717739E-01
(PID.TID 0000.0001) %MON dynstat_uvel_max             =   9.5095685981468E-03
(PID.TID 0000.0001) %MON dynstat_uvel_min             =  -4.3230776926207E-02
(PID.TID 0000.0001) %MON dynstat_uvel_mean            =   3.4671774381467E-09
(PID.TID 0000.0001) %MON dynstat_uvel_sd              =   1.2185576117914E-03
(PID.TID 0000.0001) %MON dynstat_uvel_del2            =   1.8743199689562E-06
(PID.TID 0000.0001) %MON dynstat_vvel_max             =   2.7873790199794E-02
(PID.TID 0000.0001) %MON dynstat_vvel_min             =  -1.1781051694950E-02
(PID.TID 0000.0001) %MON dynstat_vvel_mean            =   1.2034824641289E-07
(PID.TID 0000.0001) %MON dynstat_vvel_sd              =   5.5717963694622E-04
(PID.TID 0000.0001) %MON dynstat_vvel_del2            =   1.4795142574040E-06
(PID.TID 0000.0001) %MON dynstat_wvel_max             =   1.7228896904397E-03
(PID.TID 0000.0001) %MON dynstat_wvel_min             =  -2.2062050258578E-03
(PID.TID 0000.0001) %MON dynstat_wvel_mean            =   3.5257995360919E-10
(PID.TID 0000.0001) %MON dynstat_wvel_sd              =   2.8410995506836E-05
(PID.TID 0000.0001) %MON dynstat_wvel_del2            =   1.1330060693963E-07
(PID.TID 0000.0001) %MON dynstat_theta_max            =   1.2000000000000E+00
(PID.TID 0000.0001) %MON dynstat_theta_min            =  -1.0000000000000E+00
(PID.TID 0000.0001) %MON dynstat_theta_mean           =   5.6500560616008E-01
(PID.TID 0000.0001) %MON dynstat_theta_sd             =   8.4888365498877E-01
(PID.TID 0000.0001) %MON dynstat_theta_del2           =   4.1051492201049E-06
(PID.TID 0000.0001) %MON dynstat_salt_max             =   3.4700000000000E+01
(PID.TID 0000.0001) %MON dynstat_salt_min             =   3.4000000000000E+01
(PID.TID 0000.0001) %MON dynstat_salt_mean            =   3.4497916306077E+01
(PID.TID 0000.0001) %MON dynstat_salt_sd              =   2.7009158595512E-01
(PID.TID 0000.0001) %MON dynstat_salt_del2            =   1.6251505558590E-06
(PID.TID 0000.0001) %MON advcfl_uvel_max              =   4.3230776926207E-03
(PID.TID 0000.0001) %MON advcfl_vvel_max              =   2.7873790199794E-03
(PID.TID 0000.0001) %MON advcfl_wvel_max              =   1.1031025129289E-02
(PID.TID 0000.0001) %MON advcfl_W_hf_max              =   1.1031025129289E-02
(PID.TID 0000.0001) %MON pe_b_mean                    =  -6.8170405507784E-01
(PID.TID 0000.0001) %MON ke_max                       =   8.2691748887293E-04
(PID.TID 0000.0001) %MON ke_mean                      =   8.8370459879171E-07
(PID.TID 0000.0001) %MON ke_vol                       =   4.6183121409070E+12
(PID.TID 0000.0001) // =======================================================
(PID.TID 0000.0001) // End MONITOR dynamic field statistics
(PID.TID 0000.0001) // =======================================================
(PID.TID 0000.0001) // =======================================================
(PID.TID 0000.0001) // Begin OBCS MONITOR field statistics
(PID.TID 0000.0001) // =======================================================
(PID.TID 0000.0001) %MON obc_N_vVel_max               =   7.9788622744490E-08
(PID.TID 0000.0001) %MON obc_N_vVel_min               =   7.9788622744488E-08
(PID.TID 0000.0001) %MON obc_N_vVel_mean              =   7.9788622744490E-08
(PID.TID 0000.0001) %MON obc_N_vVel_sd                =  -6.3187758508203E-28
(PID.TID 0000.0001) %MON obc_N_vVel_Int               =   5.2660491011364E+00
(PID.TID 0000.0001) // =======================================================
(PID.TID 0000.0001) // End OBCS MONITOR field statistics
(PID.TID 0000.0001) // =======================================================
 cg2d: Sum(rhs),rhsMax =   3.00750213184873E+00  4.53041687554216E+02
(PID.TID 0000.0001)      cg2d_init_res =   4.61788933774979E-06
(PID.TID 0000.0001)      cg2d_iters(min,last) =      -1      77
(PID.TID 0000.0001)      cg2d_last_res =   8.40196490774909E-12
(PID.TID 0000.0001) // =======================================================
(PID.TID 0000.0001) // Begin MONITOR dynamic field statistics
(PID.TID 0000.0001) // =======================================================
(PID.TID 0000.0001) %MON time_tsnumber                =                  1314
(PID.TID 0000.0001) %MON time_secondsf                =   1.3140000000000E+05
(PID.TID 0000.0001) %MON dynstat_eta_max              =   5.7991057043738E+00
(PID.TID 0000.0001) %MON dynstat_eta_min              =  -1.4168821375248E+01
(PID.TID 0000.0001) %MON dynstat_eta_mean             =  -2.5231922983994E+00
(PID.TID 0000.0001) %MON dynstat_eta_sd               =   4.9408242067388E+00
(PID.TID 0000.0001) %MON dynstat_eta_del2             =   1.9059033210759E-01
(PID.TID 0000.0001) %MON dynstat_uvel_max             =   9.5307786368704E-03
(PID.TID 0000.0001) %MON dynstat_uvel_min             =  -4.3320386193485E-02
(PID.TID 0000.0001) %MON dynstat_uvel_mean            =   3.5216789814735E-09
(PID.TID 0000.0001) %MON dynstat_uvel_sd              =   1.2213860876755E-03
(PID.TID 0000.0001) %MON dynstat_uvel_del2            =   1.8787830045609E-06
(PID.TID 0000.0001) %MON dynstat_vvel_max             =   2.7915814530166E-02
(PID.TID 0000.0001) %MON dynstat_vvel_min             =  -1.1815295519689E-02
(PID.TID 0000.0001) %MON dynstat_vvel_mean            =   1.1571934718386E-07
(PID.TID 0000.0001) %MON dynstat_vvel_sd              =   5.5828192587871E-04
(PID.TID 0000.0001) %MON dynstat_vvel_del2            =   1.4823332161479E-06
(PID.TID 0000.0001) %MON dynstat_wvel_max             =   1.7261831501380E-03
(PID.TID 0000.0001) %MON dynstat_wvel_min             =  -2.2110045690819E-03
(PID.TID 0000.0001) %MON dynstat_wvel_mean            =   3.4690060189192E-10
(PID.TID 0000.0001) %MON dynstat_wvel_sd              =   2.8468979758145E-05
(PID.TID 0000.0001) %MON dynstat_wvel_del2            =   1.1350499695839E-07
(PID.TID 0000.0001) %MON dynstat_theta_max            =   1.2000000000000E+00
(PID.TID 0000.0001) %MON dynstat_theta_min            =  -1.0000000000000E+00
(PID.TID 0000.0001) %MON dynstat_theta_mean           =   5.6500469221803E-01
(PID.TID 0000.0001) %MON dynstat_theta_sd             =   8.4888324022482E-01
(PID.TID 0000.0001) %MON dynstat_theta_del2           =   4.1127619098996E-06
(PID.TID 0000.0001) %MON dynstat_salt_max             =   3.4700000000000E+01
(PID.TID 0000.0001) %MON dynstat_salt_min             =   3.4000000000000E+01
(PID.TID 0000.0001) %MON dynstat_salt_mean            =   3.4497915940761E+01
(PID.TID 0000.0001) %MON dynstat_salt_sd              =   2.7009142936076E-01
(PID.TID 0000.0001) %MON dynstat_salt_del2            =   1.6281680766373E-06
(PID.TID 0000.0001) %MON advcfl_uvel_max              =   4.3320386193485E-03
(PID.TID 0000.0001) %MON advcfl_vvel_max              =   2.7915814530166E-03
(PID.TID 0000.0001) %MON advcfl_wvel_max              =   1.1055022845410E-02
(PID.TID 0000.0001) %MON advcfl_W_hf_max              =   1.1055022845410E-02
(PID.TID 0000.0001) %MON pe_b_mean                    =  -6.8170160106020E-01
(PID.TID 0000.0001) %MON ke_max                       =   8.3085616955358E-04
(PID.TID 0000.0001) %MON ke_mean                      =   8.8770515508048E-07
(PID.TID 0000.0001) %MON ke_vol                       =   4.6183121892716E+12
(PID.TID 0000.0001) // =======================================================
(PID.TID 0000.0001) // End MONITOR dynamic field statistics
(PID.TID 0000.0001) // =======================================================
(PID.TID 0000.0001) // =======================================================
(PID.TID 0000.0001) // Begin OBCS MONITOR field statistics
(PID.TID 0000.0001) // =======================================================
(PID.TID 0000.0001) %MON obc_N_vVel_max               =   7.5954877556016E-08
(PID.TID 0000.0001) %MON obc_N_vVel_min               =   7.5954877556015E-08
(PID.TID 0000.0001) %MON obc_N_vVel_mean              =   7.5954877556015E-08
(PID.TID 0000.0001) %MON obc_N_vVel_sd                =   1.9090671497150E-14
(PID.TID 0000.0001) %MON obc_N_vVel_Int               =   5.0130219186970E+00
(PID.TID 0000.0001) // =======================================================
(PID.TID 0000.0001) // End OBCS MONITOR field statistics
(PID.TID 0000.0001) // =======================================================
 cg2d: Sum(rhs),rhsMax =   3.00749248717655E+00  4.53041671543905E+02
(PID.TID 0000.0001)      cg2d_init_res =   4.62633910210579E-06
(PID.TID 0000.0001)      cg2d_iters(min,last) =      -1      77
(PID.TID 0000.0001)      cg2d_last_res =   8.42057227422637E-12
(PID.TID 0000.0001) // =======================================================
(PID.TID 0000.0001) // Begin MONITOR dynamic field statistics
(PID.TID 0000.0001) // =======================================================
(PID.TID 0000.0001) %MON time_tsnumber                =                  1315
(PID.TID 0000.0001) %MON time_secondsf                =   1.3150000000000E+05
(PID.TID 0000.0001) %MON dynstat_eta_max              =   5.7991084352539E+00
(PID.TID 0000.0001) %MON dynstat_eta_min              =  -1.4168803925149E+01
(PID.TID 0000.0001) %MON dynstat_eta_mean             =  -2.5231841176781E+00
(PID.TID 0000.0001) %MON dynstat_eta_sd               =   4.9408218547972E+00
(PID.TID 0000.0001) %MON dynstat_eta_del2             =   1.9059035707380E-01
(PID.TID 0000.0001) %MON dynstat_uvel_max             =   9.5520156584197E-03
(PID.TID 0000.0001) %MON dynstat_uvel_min             =  -4.3410087722543E-02
(PID.TID 0000.0001) %MON dynstat_uvel_mean            =   3.5722721318302E-09
(PID.TID 0000.0001) %MON dynstat_uvel_sd              =   1.2242201208743E-03
(PID.TID 0000.0001) %MON dynstat_uvel_del2            =   1.8832556958128E-06
(PID.TID 0000.0001) %MON dynstat_vvel_max             =   2.7957849093165E-02
(PID.TID 0000.0001) %MON dynstat_vvel_min             =  -1.1849608948829E-02
(PID.TID 0000.0001) %MON dynstat_vvel_mean            =   1.1020207854248E-07
(PID.TID 0000.0001) %MON dynstat_vvel_sd              =   5.5938627877465E-04
(PID.TID 0000.0001) %MON dynstat_vvel_del2            =   1.4851562515859E-06
(PID.TID 0000.0001) %MON dynstat_wvel_max             =   1.7294794137089E-03
(PID.TID 0000.0001) %MON dynstat_wvel_min             =  -2.2158033257771E-03
(PID.TID 0000.0001) %MON dynstat_wvel_mean            =   3.4213926171497E-10
(PID.TID 0000.0001) %MON dynstat_wvel_sd              =   2.8527648437799E-05
(PID.TID 0000.0001) %MON dynstat_wvel_del2            =   1.1371371281114E-07
(PID.TID 0000.0001) %MON dynstat_theta_max            =   1.2000000000000E+00
(PID.TID 0000.0001) %MON dynstat_theta_min            =  -1.0000000000000E+00
(PID.TID 0000.0001) %MON dynstat_theta_mean           =   5.6500377669085E-01
(PID.TID 0000.0001) %MON dynstat_theta_sd             =   8.4888282471842E-01
(PID.TID 0000.0001) %MON dynstat_theta_del2           =   4.1203837704916E-06
(PID.TID 0000.0001) %MON dynstat_salt_max             =   3.4700000000000E+01
(PID.TID 0000.0001) %MON dynstat_salt_min             =   3.4000000000000E+01
(PID.TID 0000.0001) %MON dynstat_salt_mean            =   3.4497915574808E+01
(PID.TID 0000.0001) %MON dynstat_salt_sd              =   2.7009127248900E-01
(PID.TID 0000.0001) %MON dynstat_salt_del2            =   1.6311894074147E-06
(PID.TID 0000.0001) %MON advcfl_uvel_max              =   4.3410087722543E-03
(PID.TID 0000.0001) %MON advcfl_vvel_max              =   2.7957849093165E-03
(PID.TID 0000.0001) %MON advcfl_wvel_max              =   1.1079016628886E-02
(PID.TID 0000.0001) %MON advcfl_W_hf_max              =   1.1079016628886E-02
(PID.TID 0000.0001) %MON pe_b_mean                    =  -6.8169914135028E-01
(PID.TID 0000.0001) %MON ke_max                       =   8.3481056378014E-04
(PID.TID 0000.0001) %MON ke_mean                      =   8.9172260617077E-07
(PID.TID 0000.0001) %MON ke_vol                       =   4.6183122377475E+12
(PID.TID 0000.0001) // =======================================================
(PID.TID 0000.0001) // End MONITOR dynamic field statistics
(PID.TID 0000.0001) // =======================================================
(PID.TID 0000.0001) // =======================================================
(PID.TID 0000.0001) // Begin OBCS MONITOR field statistics
(PID.TID 0000.0001) // =======================================================
(PID.TID 0000.0001) %MON obc_N_vVel_max               =   7.1203524574457E-08
(PID.TID 0000.0001) %MON obc_N_vVel_min               =   7.1203524574456E-08
(PID.TID 0000.0001) %MON obc_N_vVel_mean              =   7.1203524574457E-08
(PID.TID 0000.0001) %MON obc_N_vVel_sd                =  -1.0412963948917E-28
(PID.TID 0000.0001) %MON obc_N_vVel_Int               =   4.6994326219142E+00
(PID.TID 0000.0001) // =======================================================
(PID.TID 0000.0001) // End OBCS MONITOR field statistics
(PID.TID 0000.0001) // =======================================================
 cg2d: Sum(rhs),rhsMax =   3.00748281964773E+00  4.53041655255514E+02
(PID.TID 0000.0001)      cg2d_init_res =   4.63485325459696E-06
(PID.TID 0000.0001)      cg2d_iters(min,last) =      -1      77
(PID.TID 0000.0001)      cg2d_last_res =   8.43939805416421E-12
(PID.TID 0000.0001) // =======================================================
(PID.TID 0000.0001) // Begin MONITOR dynamic field statistics
(PID.TID 0000.0001) // =======================================================
(PID.TID 0000.0001) %MON time_tsnumber                =                  1316
(PID.TID 0000.0001) %MON time_secondsf                =   1.3160000000000E+05
(PID.TID 0000.0001) %MON dynstat_eta_max              =   5.7991111797203E+00
(PID.TID 0000.0001) %MON dynstat_eta_min              =  -1.4168786426654E+01
(PID.TID 0000.0001) %MON dynstat_eta_mean             =  -2.5231759162328E+00
(PID.TID 0000.0001) %MON dynstat_eta_sd               =   4.9408194958845E+00
(PID.TID 0000.0001) %MON dynstat_eta_del2             =   1.9059038207614E-01
(PID.TID 0000.0001) %MON dynstat_uvel_max             =   9.5732795125150E-03
(PID.TID 0000.0001) %MON dynstat_uvel_min             =  -4.3499881632327E-02
(PID.TID 0000.0001) %MON dynstat_uvel_mean            =   3.6182668882084E-09
(PID.TID 0000.0001) %MON dynstat_uvel_sd              =   1.2270597180730E-03
(PID.TID 0000.0001) %MON dynstat_uvel_del2            =   1.8877380575059E-06
(PID.TID 0000.0001) %MON dynstat_vvel_max             =   2.7999893902824E-02
(PID.TID 0000.0001) %MON dynstat_vvel_min             =  -1.1883991835886E-02
(PID.TID 0000.0001) %MON dynstat_vvel_mean            =   1.0391447061095E-07
(PID.TID 0000.0001) %MON dynstat_vvel_sd              =   5.6049268208091E-04
(PID.TID 0000.0001) %MON dynstat_vvel_del2            =   1.4879831962020E-06
(PID.TID 0000.0001) %MON dynstat_wvel_max             =   1.7327784754509E-03
(PID.TID 0000.0001) %MON dynstat_wvel_min             =  -2.2206012140438E-03
(PID.TID 0000.0001) %MON dynstat_wvel_mean            =   3.3838690721196E-10
(PID.TID 0000.0001) %MON dynstat_wvel_sd              =   2.8586891238800E-05
(PID.TID 0000.0001) %MON dynstat_wvel_del2            =   1.1392610773096E-07
(PID.TID 0000.0001) %MON dynstat_theta_max            =   1.2000000000000E+00
(PID.TID 0000.0001) %MON dynstat_theta_min            =  -1.0000000000000E+00
(PID.TID 0000.0001) %MON dynstat_theta_mean           =   5.6500285957455E-01
(PID.TID 0000.0001) %MON dynstat_theta_sd             =   8.4888240846725E-01
(PID.TID 0000.0001) %MON dynstat_theta_del2           =   4.1280150271412E-06
(PID.TID 0000.0001) %MON dynstat_salt_max             =   3.4700000000000E+01
(PID.TID 0000.0001) %MON dynstat_salt_min             =   3.4000000000000E+01
(PID.TID 0000.0001) %MON dynstat_salt_mean            =   3.4497915208218E+01
(PID.TID 0000.0001) %MON dynstat_salt_sd              =   2.7009111533900E-01
(PID.TID 0000.0001) %MON dynstat_salt_del2            =   1.6342146062739E-06
(PID.TID 0000.0001) %MON advcfl_uvel_max              =   4.3499881632327E-03
(PID.TID 0000.0001) %MON advcfl_vvel_max              =   2.7999893902824E-03
(PID.TID 0000.0001) %MON advcfl_wvel_max              =   1.1103006070219E-02
(PID.TID 0000.0001) %MON advcfl_W_hf_max              =   1.1103006070219E-02
(PID.TID 0000.0001) %MON pe_b_mean                    =  -6.8169667578300E-01
(PID.TID 0000.0001) %MON ke_max                       =   8.3878071825070E-04
(PID.TID 0000.0001) %MON ke_mean                      =   8.9575700574068E-07
(PID.TID 0000.0001) %MON ke_vol                       =   4.6183122863410E+12
(PID.TID 0000.0001) // =======================================================
(PID.TID 0000.0001) // End MONITOR dynamic field statistics
(PID.TID 0000.0001) // =======================================================
(PID.TID 0000.0001) // =======================================================
(PID.TID 0000.0001) // Begin OBCS MONITOR field statistics
(PID.TID 0000.0001) // =======================================================
(PID.TID 0000.0001) %MON obc_N_vVel_max               =   6.5637448406276E-08
(PID.TID 0000.0001) %MON obc_N_vVel_min               =   6.5637448406276E-08
(PID.TID 0000.0001) %MON obc_N_vVel_mean              =   6.5637448406276E-08
(PID.TID 0000.0001) %MON obc_N_vVel_sd                =   1.2716779685530E-14
(PID.TID 0000.0001) %MON obc_N_vVel_Int               =   4.3320715948142E+00
(PID.TID 0000.0001) // =======================================================
(PID.TID 0000.0001) // End OBCS MONITOR field statistics
(PID.TID 0000.0001) // =======================================================
 cg2d: Sum(rhs),rhsMax =   3.00747312838158E+00  4.53041638677723E+02
(PID.TID 0000.0001)      cg2d_init_res =   4.64341167389919E-06
(PID.TID 0000.0001)      cg2d_iters(min,last) =      -1      77
(PID.TID 0000.0001)      cg2d_last_res =   8.45842598822134E-12
(PID.TID 0000.0001) // =======================================================
(PID.TID 0000.0001) // Begin MONITOR dynamic field statistics
(PID.TID 0000.0001) // =======================================================
(PID.TID 0000.0001) %MON time_tsnumber                =                  1317
(PID.TID 0000.0001) %MON time_secondsf                =   1.3170000000000E+05
(PID.TID 0000.0001) %MON dynstat_eta_max              =   5.7991139388639E+00
(PID.TID 0000.0001) %MON dynstat_eta_min              =  -1.4168768878389E+01
(PID.TID 0000.0001) %MON dynstat_eta_mean             =  -2.5231676932615E+00
(PID.TID 0000.0001) %MON dynstat_eta_sd               =   4.9408171298644E+00
(PID.TID 0000.0001) %MON dynstat_eta_del2             =   1.9059040711488E-01
(PID.TID 0000.0001) %MON dynstat_uvel_max             =   9.5945700518723E-03
(PID.TID 0000.0001) %MON dynstat_uvel_min             =  -4.3589768042439E-02
(PID.TID 0000.0001) %MON dynstat_uvel_mean            =   3.6590624579267E-09
(PID.TID 0000.0001) %MON dynstat_uvel_sd              =   1.2299048858937E-03
(PID.TID 0000.0001) %MON dynstat_uvel_del2            =   1.8922301046034E-06
(PID.TID 0000.0001) %MON dynstat_vvel_max             =   2.8041948974680E-02
(PID.TID 0000.0001) %MON dynstat_vvel_min             =  -1.1918444029806E-02
(PID.TID 0000.0001) %MON dynstat_vvel_mean            =   9.6987976679985E-08
(PID.TID 0000.0001) %MON dynstat_vvel_sd              =   5.6160111563463E-04
(PID.TID 0000.0001) %MON dynstat_vvel_del2            =   1.4908138302561E-06
(PID.TID 0000.0001) %MON dynstat_wvel_max             =   1.7360803295459E-03
(PID.TID 0000.0001) %MON dynstat_wvel_min             =  -2.2253981511789E-03
(PID.TID 0000.0001) %MON dynstat_wvel_mean            =   3.3571478577703E-10
(PID.TID 0000.0001) %MON dynstat_wvel_sd              =   2.8646556439453E-05
(PID.TID 0000.0001) %MON dynstat_wvel_del2            =   1.1414124834301E-07
(PID.TID 0000.0001) %MON dynstat_theta_max            =   1.2000000000000E+00
(PID.TID 0000.0001) %MON dynstat_theta_min            =  -1.0000000000000E+00
(PID.TID 0000.0001) %MON dynstat_theta_mean           =   5.6500194086515E-01
(PID.TID 0000.0001) %MON dynstat_theta_sd             =   8.4888199146988E-01
(PID.TID 0000.0001) %MON dynstat_theta_del2           =   4.1356559636952E-06
(PID.TID 0000.0001) %MON dynstat_salt_max             =   3.4700000000000E+01
(PID.TID 0000.0001) %MON dynstat_salt_min             =   3.4000000000000E+01
(PID.TID 0000.0001) %MON dynstat_salt_mean            =   3.4497914840988E+01
(PID.TID 0000.0001) %MON dynstat_salt_sd              =   2.7009095791038E-01
(PID.TID 0000.0001) %MON dynstat_salt_del2            =   1.6372437337990E-06
(PID.TID 0000.0001) %MON advcfl_uvel_max              =   4.3589768042439E-03
(PID.TID 0000.0001) %MON advcfl_vvel_max              =   2.8041948974680E-03
(PID.TID 0000.0001) %MON advcfl_wvel_max              =   1.1126990755894E-02
(PID.TID 0000.0001) %MON advcfl_W_hf_max              =   1.1126990755894E-02
(PID.TID 0000.0001) %MON pe_b_mean                    =  -6.8169420422212E-01
(PID.TID 0000.0001) %MON ke_max                       =   8.4276667977939E-04
(PID.TID 0000.0001) %MON ke_mean                      =   8.9980840379875E-07
(PID.TID 0000.0001) %MON ke_vol                       =   4.6183123350576E+12
(PID.TID 0000.0001) // =======================================================
(PID.TID 0000.0001) // End MONITOR dynamic field statistics
(PID.TID 0000.0001) // =======================================================
(PID.TID 0000.0001) // =======================================================
(PID.TID 0000.0001) // Begin OBCS MONITOR field statistics
(PID.TID 0000.0001) // =======================================================
(PID.TID 0000.0001) %MON obc_N_vVel_max               =   5.9373909791069E-08
(PID.TID 0000.0001) %MON obc_N_vVel_min               =   5.9373909791067E-08
(PID.TID 0000.0001) %MON obc_N_vVel_mean              =   5.9373909791069E-08
(PID.TID 0000.0001) %MON obc_N_vVel_sd                =  -1.5856104194942E-28
(PID.TID 0000.0001) %MON obc_N_vVel_Int               =   3.9186780462106E+00
(PID.TID 0000.0001) // =======================================================
(PID.TID 0000.0001) // End OBCS MONITOR field statistics
(PID.TID 0000.0001) // =======================================================
 cg2d: Sum(rhs),rhsMax =   3.00746341263693E+00  4.53041621804025E+02
(PID.TID 0000.0001)      cg2d_init_res =   4.65199147383160E-06
(PID.TID 0000.0001)      cg2d_iters(min,last) =      -1      77
(PID.TID 0000.0001)      cg2d_last_res =   8.47764881931457E-12
(PID.TID 0000.0001) // =======================================================
(PID.TID 0000.0001) // Begin MONITOR dynamic field statistics
(PID.TID 0000.0001) // =======================================================
(PID.TID 0000.0001) %MON time_tsnumber                =                  1318
(PID.TID 0000.0001) %MON time_secondsf                =   1.3180000000000E+05
(PID.TID 0000.0001) %MON dynstat_eta_max              =   5.7991167135270E+00
(PID.TID 0000.0001) %MON dynstat_eta_min              =  -1.4168751279276E+01
(PID.TID 0000.0001) %MON dynstat_eta_mean             =  -2.5231594481061E+00
(PID.TID 0000.0001) %MON dynstat_eta_sd               =   4.9408147566582E+00
(PID.TID 0000.0001) %MON dynstat_eta_del2             =   1.9059043219043E-01
(PID.TID 0000.0001) %MON dynstat_uvel_max             =   9.6158871278087E-03
(PID.TID 0000.0001) %MON dynstat_uvel_min             =  -4.3679747072346E-02
(PID.TID 0000.0001) %MON dynstat_uvel_mean            =   3.6941629223976E-09
(PID.TID 0000.0001) %MON dynstat_uvel_sd              =   1.2327556308631E-03
(PID.TID 0000.0001) %MON dynstat_uvel_del2            =   1.8967318520224E-06
(PID.TID 0000.0001) %MON dynstat_vvel_max             =   2.8084014325278E-02
(PID.TID 0000.0001) %MON dynstat_vvel_min             =  -1.1952965375695E-02
(PID.TID 0000.0001) %MON dynstat_vvel_mean            =   8.9564919486281E-08
(PID.TID 0000.0001) %MON dynstat_vvel_sd              =   5.6271155504332E-04
(PID.TID 0000.0001) %MON dynstat_vvel_del2            =   1.4936479023572E-06
(PID.TID 0000.0001) %MON dynstat_wvel_max             =   1.7393849700578E-03
(PID.TID 0000.0001) %MON dynstat_wvel_min             =  -2.2301940540244E-03
(PID.TID 0000.0001) %MON dynstat_wvel_mean            =   3.3417387468875E-10
(PID.TID 0000.0001) %MON dynstat_wvel_sd              =   2.8706463464052E-05
(PID.TID 0000.0001) %MON dynstat_wvel_del2            =   1.1435799276242E-07
(PID.TID 0000.0001) %MON dynstat_theta_max            =   1.2000000000000E+00
(PID.TID 0000.0001) %MON dynstat_theta_min            =  -1.0000000000000E+00
(PID.TID 0000.0001) %MON dynstat_theta_mean           =   5.6500102055861E-01
(PID.TID 0000.0001) %MON dynstat_theta_sd             =   8.4888157372466E-01
(PID.TID 0000.0001) %MON dynstat_theta_del2           =   4.1433069003383E-06
(PID.TID 0000.0001) %MON dynstat_salt_max             =   3.4700000000000E+01
(PID.TID 0000.0001) %MON dynstat_salt_min             =   3.4000000000000E+01
(PID.TID 0000.0001) %MON dynstat_salt_mean            =   3.4497914473117E+01
(PID.TID 0000.0001) %MON dynstat_salt_sd              =   2.7009080020267E-01
(PID.TID 0000.0001) %MON dynstat_salt_del2            =   1.6402768697743E-06
(PID.TID 0000.0001) %MON advcfl_uvel_max              =   4.3679747072346E-03
(PID.TID 0000.0001) %MON advcfl_vvel_max              =   2.8084014325278E-03
(PID.TID 0000.0001) %MON advcfl_wvel_max              =   1.1150970270122E-02
(PID.TID 0000.0001) %MON advcfl_W_hf_max              =   1.1150970270122E-02
(PID.TID 0000.0001) %MON pe_b_mean                    =  -6.8169172656250E-01
(PID.TID 0000.0001) %MON ke_max                       =   8.4676849528301E-04
(PID.TID 0000.0001) %MON ke_mean                      =   9.0387684794500E-07
(PID.TID 0000.0001) %MON ke_vol                       =   4.6183123839020E+12
(PID.TID 0000.0001) // =======================================================
(PID.TID 0000.0001) // End MONITOR dynamic field statistics
(PID.TID 0000.0001) // =======================================================
(PID.TID 0000.0001) // =======================================================
(PID.TID 0000.0001) // Begin OBCS MONITOR field statistics
(PID.TID 0000.0001) // =======================================================
(PID.TID 0000.0001) %MON obc_N_vVel_max               =   5.2542210043094E-08
(PID.TID 0000.0001) %MON obc_N_vVel_min               =   5.2542210043094E-08
(PID.TID 0000.0001) %MON obc_N_vVel_mean              =   5.2542210043094E-08
(PID.TID 0000.0001) %MON obc_N_vVel_sd                =   4.9051256466314E-15
(PID.TID 0000.0001) %MON obc_N_vVel_Int               =   3.4677858628442E+00
(PID.TID 0000.0001) // =======================================================
(PID.TID 0000.0001) // End OBCS MONITOR field statistics
(PID.TID 0000.0001) // =======================================================
 cg2d: Sum(rhs),rhsMax =   3.00745367182508E+00  4.53041604632741E+02
(PID.TID 0000.0001)      cg2d_init_res =   4.66056854270433E-06
(PID.TID 0000.0001)      cg2d_iters(min,last) =      -1      77
(PID.TID 0000.0001)      cg2d_last_res =   8.49704273253475E-12
(PID.TID 0000.0001) // =======================================================
(PID.TID 0000.0001) // Begin MONITOR dynamic field statistics
(PID.TID 0000.0001) // =======================================================
(PID.TID 0000.0001) %MON time_tsnumber                =                  1319
(PID.TID 0000.0001) %MON time_secondsf                =   1.3190000000000E+05
(PID.TID 0000.0001) %MON dynstat_eta_max              =   5.7991195042799E+00
(PID.TID 0000.0001) %MON dynstat_eta_min              =  -1.4168733628543E+01
(PID.TID 0000.0001) %MON dynstat_eta_mean             =  -2.5231511802635E+00
(PID.TID 0000.0001) %MON dynstat_eta_sd               =   4.9408123762448E+00
(PID.TID 0000.0001) %MON dynstat_eta_del2             =   1.9059045730332E-01
(PID.TID 0000.0001) %MON dynstat_uvel_max             =   9.6372305899939E-03
(PID.TID 0000.0001) %MON dynstat_uvel_min             =  -4.3769818841374E-02
(PID.TID 0000.0001) %MON dynstat_uvel_mean            =   3.7231871763445E-09
(PID.TID 0000.0001) %MON dynstat_uvel_sd              =   1.2356119594331E-03
(PID.TID 0000.0001) %MON dynstat_uvel_del2            =   1.9012433148044E-06
(PID.TID 0000.0001) %MON dynstat_vvel_max             =   2.8126089972003E-02
(PID.TID 0000.0001) %MON dynstat_vvel_min             =  -1.1987555715677E-02
(PID.TID 0000.0001) %MON dynstat_vvel_mean            =   8.1795760701093E-08
(PID.TID 0000.0001) %MON dynstat_vvel_sd              =   5.6382397436137E-04
(PID.TID 0000.0001) %MON dynstat_vvel_del2            =   1.4964851516716E-06
(PID.TID 0000.0001) %MON dynstat_wvel_max             =   1.7426923909443E-03
(PID.TID 0000.0001) %MON dynstat_wvel_min             =  -2.2349888389323E-03
(PID.TID 0000.0001) %MON dynstat_wvel_mean            =   3.3379363294663E-10
(PID.TID 0000.0001) %MON dynstat_wvel_sd              =   2.8766417505123E-05
(PID.TID 0000.0001) %MON dynstat_wvel_del2            =   1.1457508470550E-07
(PID.TID 0000.0001) %MON dynstat_theta_max            =   1.2000000000000E+00
(PID.TID 0000.0001) %MON dynstat_theta_min            =  -1.0000000000000E+00
(PID.TID 0000.0001) %MON dynstat_theta_mean           =   5.6500009865101E-01
(PID.TID 0000.0001) %MON dynstat_theta_sd             =   8.4888115523059E-01
(PID.TID 0000.0001) %MON dynstat_theta_del2           =   4.1509681628113E-06
(PID.TID 0000.0001) %MON dynstat_salt_max             =   3.4700000000000E+01
(PID.TID 0000.0001) %MON dynstat_salt_min             =   3.4000000000000E+01
(PID.TID 0000.0001) %MON dynstat_salt_mean            =   3.4497914104603E+01
(PID.TID 0000.0001) %MON dynstat_salt_sd              =   2.7009064221548E-01
(PID.TID 0000.0001) %MON dynstat_salt_del2            =   1.6433140942920E-06
(PID.TID 0000.0001) %MON advcfl_uvel_max              =   4.3769818841374E-03
(PID.TID 0000.0001) %MON advcfl_vvel_max              =   2.8126089972003E-03
(PID.TID 0000.0001) %MON advcfl_wvel_max              =   1.1174944194662E-02
(PID.TID 0000.0001) %MON advcfl_W_hf_max              =   1.1174944194662E-02
(PID.TID 0000.0001) %MON pe_b_mean                    =  -6.8168924273169E-01
(PID.TID 0000.0001) %MON ke_max                       =   8.5078621177724E-04
(PID.TID 0000.0001) %MON ke_mean                      =   9.0796238487889E-07
(PID.TID 0000.0001) %MON ke_vol                       =   4.6183124328782E+12
(PID.TID 0000.0001) // =======================================================
(PID.TID 0000.0001) // End MONITOR dynamic field statistics
(PID.TID 0000.0001) // =======================================================
(PID.TID 0000.0001) // =======================================================
(PID.TID 0000.0001) // Begin OBCS MONITOR field statistics
(PID.TID 0000.0001) // =======================================================
(PID.TID 0000.0001) %MON obc_N_vVel_max               =   4.5281235523151E-08
(PID.TID 0000.0001) %MON obc_N_vVel_min               =   4.5281235523149E-08
(PID.TID 0000.0001) %MON obc_N_vVel_mean              =   4.5281235523151E-08
(PID.TID 0000.0001) %MON obc_N_vVel_sd                =  -1.5027800244460E-28
(PID.TID 0000.0001) %MON obc_N_vVel_Int               =   2.9885615445279E+00
(PID.TID 0000.0001) // =======================================================
(PID.TID 0000.0001) // End OBCS MONITOR field statistics
(PID.TID 0000.0001) // =======================================================
 cg2d: Sum(rhs),rhsMax =   3.00744390551787E+00  4.53041587166951E+02
(PID.TID 0000.0001)      cg2d_init_res =   4.66911751000302E-06
(PID.TID 0000.0001)      cg2d_iters(min,last) =      -1      77
(PID.TID 0000.0001)      cg2d_last_res =   8.51659184111144E-12
(PID.TID 0000.0001) // =======================================================
(PID.TID 0000.0001) // Begin MONITOR dynamic field statistics
(PID.TID 0000.0001) // =======================================================
(PID.TID 0000.0001) %MON time_tsnumber                =                  1320
(PID.TID 0000.0001) %MON time_secondsf                =   1.3200000000000E+05
(PID.TID 0000.0001) %MON dynstat_eta_max              =   5.7991223114210E+00
(PID.TID 0000.0001) %MON dynstat_eta_min              =  -1.4168715925735E+01
(PID.TID 0000.0001) %MON dynstat_eta_mean             =  -2.5231428893915E+00
(PID.TID 0000.0001) %MON dynstat_eta_sd               =   4.9408099886603E+00
(PID.TID 0000.0001) %MON dynstat_eta_del2             =   1.9059048245416E-01
(PID.TID 0000.0001) %MON dynstat_uvel_max             =   9.6586002865475E-03
(PID.TID 0000.0001) %MON dynstat_uvel_min             =  -4.3859983468589E-02
(PID.TID 0000.0001) %MON dynstat_uvel_mean            =   3.7458702888006E-09
(PID.TID 0000.0001) %MON dynstat_uvel_sd              =   1.2384738779814E-03
(PID.TID 0000.0001) %MON dynstat_uvel_del2            =   1.9057645081586E-06
(PID.TID 0000.0001) %MON dynstat_vvel_max             =   2.8168175932588E-02
(PID.TID 0000.0001) %MON dynstat_vvel_min             =  -1.2022214889598E-02
(PID.TID 0000.0001) %MON dynstat_vvel_mean            =   7.3836234936482E-08
(PID.TID 0000.0001) %MON dynstat_vvel_sd              =   5.6493834894570E-04
(PID.TID 0000.0001) %MON dynstat_vvel_del2            =   1.4993253312238E-06
(PID.TID 0000.0001) %MON dynstat_wvel_max             =   1.7460025860610E-03
(PID.TID 0000.0001) %MON dynstat_wvel_min             =  -2.2397824216371E-03
(PID.TID 0000.0001) %MON dynstat_wvel_mean            =   3.3458168098390E-10
(PID.TID 0000.0001) %MON dynstat_wvel_sd              =   2.8826225016431E-05
(PID.TID 0000.0001) %MON dynstat_wvel_del2            =   1.1479125557991E-07
(PID.TID 0000.0001) %MON dynstat_theta_max            =   1.2000000000000E+00
(PID.TID 0000.0001) %MON dynstat_theta_min            =  -1.0000000000000E+00
(PID.TID 0000.0001) %MON dynstat_theta_mean           =   5.6499917513830E-01
(PID.TID 0000.0001) %MON dynstat_theta_sd             =   8.4888073598749E-01
(PID.TID 0000.0001) %MON dynstat_theta_del2           =   4.1586400502105E-06
(PID.TID 0000.0001) %MON dynstat_salt_max             =   3.4700000000000E+01
(PID.TID 0000.0001) %MON dynstat_salt_min             =   3.4000000000000E+01
(PID.TID 0000.0001) %MON dynstat_salt_mean            =   3.4497913735446E+01
(PID.TID 0000.0001) %MON dynstat_salt_sd              =   2.7009048394879E-01
(PID.TID 0000.0001) %MON dynstat_salt_del2            =   1.6463554749505E-06
(PID.TID 0000.0001) %MON advcfl_uvel_max              =   4.3859983468589E-03
(PID.TID 0000.0001) %MON advcfl_vvel_max              =   2.8168175932588E-03
(PID.TID 0000.0001) %MON advcfl_wvel_max              =   1.1198912108185E-02
(PID.TID 0000.0001) %MON advcfl_W_hf_max              =   1.1198912108185E-02
(PID.TID 0000.0001) %MON pe_b_mean                    =  -6.8168675269057E-01
(PID.TID 0000.0001) %MON ke_max                       =   8.5481987637539E-04
(PID.TID 0000.0001) %MON ke_mean                      =   9.1206506200227E-07
(PID.TID 0000.0001) %MON ke_vol                       =   4.6183124819892E+12
(PID.TID 0000.0001) // =======================================================
(PID.TID 0000.0001) // End MONITOR dynamic field statistics
(PID.TID 0000.0001) // =======================================================
(PID.TID 0000.0001) // =======================================================
(PID.TID 0000.0001) // Begin OBCS MONITOR field statistics
(PID.TID 0000.0001) // =======================================================
(PID.TID 0000.0001) %MON obc_N_vVel_max               =   3.7736778000016E-08
(PID.TID 0000.0001) %MON obc_N_vVel_min               =   3.7736778000016E-08
(PID.TID 0000.0001) %MON obc_N_vVel_mean              =   3.7736778000016E-08
(PID.TID 0000.0001) %MON obc_N_vVel_sd                =   4.7207330545683E-15
(PID.TID 0000.0001) %MON obc_N_vVel_Int               =   2.4906273480010E+00
(PID.TID 0000.0001) // =======================================================
(PID.TID 0000.0001) // End OBCS MONITOR field statistics
(PID.TID 0000.0001) // =======================================================
 cg2d: Sum(rhs),rhsMax =   3.00743411345485E+00  4.53041569414231E+02
(PID.TID 0000.0001)      cg2d_init_res =   4.67761528643727E-06
(PID.TID 0000.0001)      cg2d_iters(min,last) =      -1      77
(PID.TID 0000.0001)      cg2d_last_res =   8.53628604332240E-12
(PID.TID 0000.0001) // =======================================================
(PID.TID 0000.0001) // Begin MONITOR dynamic field statistics
(PID.TID 0000.0001) // =======================================================
(PID.TID 0000.0001) %MON time_tsnumber                =                  1321
(PID.TID 0000.0001) %MON time_secondsf                =   1.3210000000000E+05
(PID.TID 0000.0001) %MON dynstat_eta_max              =   5.7991251349824E+00
(PID.TID 0000.0001) %MON dynstat_eta_min              =  -1.4168698170723E+01
(PID.TID 0000.0001) %MON dynstat_eta_mean             =  -2.5231345753138E+00
(PID.TID 0000.0001) %MON dynstat_eta_sd               =   4.9408075939976E+00
(PID.TID 0000.0001) %MON dynstat_eta_del2             =   1.9059050764375E-01
(PID.TID 0000.0001) %MON dynstat_uvel_max             =   9.6799960640279E-03
(PID.TID 0000.0001) %MON dynstat_uvel_min             =  -4.3950241072522E-02
(PID.TID 0000.0001) %MON dynstat_uvel_mean            =   3.7620629112719E-09
(PID.TID 0000.0001) %MON dynstat_uvel_sd              =   1.2413413928828E-03
(PID.TID 0000.0001) %MON dynstat_uvel_del2            =   1.9102954476456E-06
(PID.TID 0000.0001) %MON dynstat_vvel_max             =   2.8210272491121E-02
(PID.TID 0000.0001) %MON dynstat_vvel_min             =  -1.2056942735530E-02
(PID.TID 0000.0001) %MON dynstat_vvel_mean            =   6.5844408992312E-08
(PID.TID 0000.0001) %MON dynstat_vvel_sd              =   5.6605465828739E-04
(PID.TID 0000.0001) %MON dynstat_vvel_del2            =   1.5021682304979E-06
(PID.TID 0000.0001) %MON dynstat_wvel_max             =   1.7493156279326E-03
(PID.TID 0000.0001) %MON dynstat_wvel_min             =  -2.2445747172847E-03
(PID.TID 0000.0001) %MON dynstat_wvel_mean            =   3.3652437248448E-10
(PID.TID 0000.0001) %MON dynstat_wvel_sd              =   2.8885709085947E-05
(PID.TID 0000.0001) %MON dynstat_wvel_del2            =   1.1500532755737E-07
(PID.TID 0000.0001) %MON dynstat_theta_max            =   1.2000000000000E+00
(PID.TID 0000.0001) %MON dynstat_theta_min            =  -1.0000000000000E+00
(PID.TID 0000.0001) %MON dynstat_theta_mean           =   5.6499825001635E-01
(PID.TID 0000.0001) %MON dynstat_theta_sd             =   8.4888031599575E-01
(PID.TID 0000.0001) %MON dynstat_theta_del2           =   4.1663228172909E-06
(PID.TID 0000.0001) %MON dynstat_salt_max             =   3.4700000000000E+01
(PID.TID 0000.0001) %MON dynstat_salt_min             =   3.4000000000000E+01
(PID.TID 0000.0001) %MON dynstat_salt_mean            =   3.4497913365643E+01
(PID.TID 0000.0001) %MON dynstat_salt_sd              =   2.7009032540275E-01
(PID.TID 0000.0001) %MON dynstat_salt_del2            =   1.6494010698509E-06
(PID.TID 0000.0001) %MON advcfl_uvel_max              =   4.3950241072522E-03
(PID.TID 0000.0001) %MON advcfl_vvel_max              =   2.8210272491121E-03
(PID.TID 0000.0001) %MON advcfl_wvel_max              =   1.1222873586423E-02
(PID.TID 0000.0001) %MON advcfl_W_hf_max              =   1.1222873586423E-02
(PID.TID 0000.0001) %MON pe_b_mean                    =  -6.8168425643385E-01
(PID.TID 0000.0001) %MON ke_max                       =   8.5886953628658E-04
(PID.TID 0000.0001) %MON ke_mean                      =   9.1618492911448E-07
(PID.TID 0000.0001) %MON ke_vol                       =   4.6183125312370E+12
(PID.TID 0000.0001) // =======================================================
(PID.TID 0000.0001) // End MONITOR dynamic field statistics
(PID.TID 0000.0001) // =======================================================
(PID.TID 0000.0001) // =======================================================
(PID.TID 0000.0001) // Begin OBCS MONITOR field statistics
(PID.TID 0000.0001) // =======================================================
(PID.TID 0000.0001) %MON obc_N_vVel_max               =   3.0058750752025E-08
(PID.TID 0000.0001) %MON obc_N_vVel_min               =   3.0058750752024E-08
(PID.TID 0000.0001) %MON obc_N_vVel_mean              =   3.0058750752025E-08
(PID.TID 0000.0001) %MON obc_N_vVel_sd                =  -9.5057739079132E-29
(PID.TID 0000.0001) %MON obc_N_vVel_Int               =   1.9838775496337E+00
(PID.TID 0000.0001) // =======================================================
(PID.TID 0000.0001) // End OBCS MONITOR field statistics
(PID.TID 0000.0001) // =======================================================
 cg2d: Sum(rhs),rhsMax =   3.00742429554773E+00  4.53041551386393E+02
(PID.TID 0000.0001)      cg2d_init_res =   4.68603756571280E-06
(PID.TID 0000.0001)      cg2d_iters(min,last) =      -1      77
(PID.TID 0000.0001)      cg2d_last_res =   8.55606007946604E-12
(PID.TID 0000.0001) // =======================================================
(PID.TID 0000.0001) // Begin MONITOR dynamic field statistics
(PID.TID 0000.0001) // =======================================================
(PID.TID 0000.0001) %MON time_tsnumber                =                  1322
(PID.TID 0000.0001) %MON time_secondsf                =   1.3220000000000E+05
(PID.TID 0000.0001) %MON dynstat_eta_max              =   5.7991279747068E+00
(PID.TID 0000.0001) %MON dynstat_eta_min              =  -1.4168680363699E+01
(PID.TID 0000.0001) %MON dynstat_eta_mean             =  -2.5231262380224E+00
(PID.TID 0000.0001) %MON dynstat_eta_sd               =   4.9408051924075E+00
(PID.TID 0000.0001) %MON dynstat_eta_del2             =   1.9059053287311E-01
(PID.TID 0000.0001) %MON dynstat_uvel_max             =   9.7014177675154E-03
(PID.TID 0000.0001) %MON dynstat_uvel_min             =  -4.4040591771171E-02
(PID.TID 0000.0001) %MON dynstat_uvel_mean            =   3.7717497310279E-09
(PID.TID 0000.0001) %MON dynstat_uvel_sd              =   1.2442145103411E-03
(PID.TID 0000.0001) %MON dynstat_uvel_del2            =   1.9148361483889E-06
(PID.TID 0000.0001) %MON dynstat_vvel_max             =   2.8252379608940E-02
(PID.TID 0000.0001) %MON dynstat_vvel_min             =  -1.2091739090204E-02
(PID.TID 0000.0001) %MON dynstat_vvel_mean            =   5.7977679740150E-08
(PID.TID 0000.0001) %MON dynstat_vvel_sd              =   5.6717288839169E-04
(PID.TID 0000.0001) %MON dynstat_vvel_del2            =   1.5050136934122E-06
(PID.TID 0000.0001) %MON dynstat_wvel_max             =   1.7526314879101E-03
(PID.TID 0000.0001) %MON dynstat_wvel_min             =  -2.2493656403969E-03
(PID.TID 0000.0001) %MON dynstat_wvel_mean            =   3.3958525032185E-10
(PID.TID 0000.0001) %MON dynstat_wvel_sd              =   2.8944722571601E-05
(PID.TID 0000.0001) %MON dynstat_wvel_del2            =   1.1521630358491E-07
(PID.TID 0000.0001) %MON dynstat_theta_max            =   1.2000000000000E+00
(PID.TID 0000.0001) %MON dynstat_theta_min            =  -1.0000000000000E+00
(PID.TID 0000.0001) %MON dynstat_theta_mean           =   5.6499732328108E-01
(PID.TID 0000.0001) %MON dynstat_theta_sd             =   8.4887989525644E-01
(PID.TID 0000.0001) %MON dynstat_theta_del2           =   4.1740166264355E-06
(PID.TID 0000.0001) %MON dynstat_salt_max             =   3.4700000000000E+01
(PID.TID 0000.0001) %MON dynstat_salt_min             =   3.4000000000000E+01
(PID.TID 0000.0001) %MON dynstat_salt_mean            =   3.4497912995192E+01
(PID.TID 0000.0001) %MON dynstat_salt_sd              =   2.7009016657777E-01
(PID.TID 0000.0001) %MON dynstat_salt_del2            =   1.6524509142495E-06
(PID.TID 0000.0001) %MON advcfl_uvel_max              =   4.4040591771171E-03
(PID.TID 0000.0001) %MON advcfl_vvel_max              =   2.8252379608940E-03
(PID.TID 0000.0001) %MON advcfl_wvel_max              =   1.1246828201984E-02
(PID.TID 0000.0001) %MON advcfl_W_hf_max              =   1.1246828201984E-02
(PID.TID 0000.0001) %MON pe_b_mean                    =  -6.8168175398990E-01
(PID.TID 0000.0001) %MON ke_max                       =   8.6293523881079E-04
(PID.TID 0000.0001) %MON ke_mean                      =   9.2032203957890E-07
(PID.TID 0000.0001) %MON ke_vol                       =   4.6183125806226E+12
(PID.TID 0000.0001) // =======================================================
(PID.TID 0000.0001) // End MONITOR dynamic field statistics
(PID.TID 0000.0001) // =======================================================
(PID.TID 0000.0001) // =======================================================
(PID.TID 0000.0001) // Begin OBCS MONITOR field statistics
(PID.TID 0000.0001) // =======================================================
(PID.TID 0000.0001) %MON obc_N_vVel_max               =   2.2398370379560E-08
(PID.TID 0000.0001) %MON obc_N_vVel_min               =   2.2398370379559E-08
(PID.TID 0000.0001) %MON obc_N_vVel_mean              =   2.2398370379560E-08
(PID.TID 0000.0001) %MON obc_N_vVel_sd                =  -4.9501021802618E-29
(PID.TID 0000.0001) %MON obc_N_vVel_Int               =   1.4782924450509E+00
(PID.TID 0000.0001) // =======================================================
(PID.TID 0000.0001) // End OBCS MONITOR field statistics
(PID.TID 0000.0001) // =======================================================
 cg2d: Sum(rhs),rhsMax =   3.00741445188088E+00  4.53041533099150E+02
(PID.TID 0000.0001)      cg2d_init_res =   4.69436738416990E-06
(PID.TID 0000.0001)      cg2d_iters(min,last) =      -1      77
(PID.TID 0000.0001)      cg2d_last_res =   8.57590337382659E-12
(PID.TID 0000.0001) // =======================================================
(PID.TID 0000.0001) // Begin MONITOR dynamic field statistics
(PID.TID 0000.0001) // =======================================================
(PID.TID 0000.0001) %MON time_tsnumber                =                  1323
(PID.TID 0000.0001) %MON time_secondsf                =   1.3230000000000E+05
(PID.TID 0000.0001) %MON dynstat_eta_max              =   5.7991308300808E+00
(PID.TID 0000.0001) %MON dynstat_eta_min              =  -1.4168662505161E+01
(PID.TID 0000.0001) %MON dynstat_eta_mean             =  -2.5231178776753E+00
(PID.TID 0000.0001) %MON dynstat_eta_sd               =   4.9408027840910E+00
(PID.TID 0000.0001) %MON dynstat_eta_del2             =   1.9059055814329E-01
(PID.TID 0000.0001) %MON dynstat_uvel_max             =   9.7228652406391E-03
(PID.TID 0000.0001) %MON dynstat_uvel_min             =  -4.4131035681710E-02
(PID.TID 0000.0001) %MON dynstat_uvel_mean            =   3.7750352793860E-09
(PID.TID 0000.0001) %MON dynstat_uvel_sd              =   1.2470932364933E-03
(PID.TID 0000.0001) %MON dynstat_uvel_del2            =   1.9193866255284E-06
(PID.TID 0000.0001) %MON dynstat_vvel_max             =   2.8294497308778E-02
(PID.TID 0000.0001) %MON dynstat_vvel_min             =  -1.2126603789667E-02
(PID.TID 0000.0001) %MON dynstat_vvel_mean            =   5.0389850938498E-08
(PID.TID 0000.0001) %MON dynstat_vvel_sd              =   5.6829303385415E-04
(PID.TID 0000.0001) %MON dynstat_vvel_del2            =   1.5078616336061E-06
(PID.TID 0000.0001) %MON dynstat_wvel_max             =   1.7559501653209E-03
(PID.TID 0000.0001) %MON dynstat_wvel_min             =  -2.2541551048379E-03
(PID.TID 0000.0001) %MON dynstat_wvel_mean            =   3.4370852743082E-10
(PID.TID 0000.0001) %MON dynstat_wvel_sd              =   2.9003159581936E-05
(PID.TID 0000.0001) %MON dynstat_wvel_del2            =   1.1542344668908E-07
(PID.TID 0000.0001) %MON dynstat_theta_max            =   1.2000000000000E+00
(PID.TID 0000.0001) %MON dynstat_theta_min            =  -1.0000000000000E+00
(PID.TID 0000.0001) %MON dynstat_theta_mean           =   5.6499639492840E-01
(PID.TID 0000.0001) %MON dynstat_theta_sd             =   8.4887947377026E-01
(PID.TID 0000.0001) %MON dynstat_theta_del2           =   4.1817215536737E-06
(PID.TID 0000.0001) %MON dynstat_salt_max             =   3.4700000000000E+01
(PID.TID 0000.0001) %MON dynstat_salt_min             =   3.4000000000000E+01
(PID.TID 0000.0001) %MON dynstat_salt_mean            =   3.4497912624093E+01
(PID.TID 0000.0001) %MON dynstat_salt_sd              =   2.7009000747406E-01
(PID.TID 0000.0001) %MON dynstat_salt_del2            =   1.6555050191047E-06
(PID.TID 0000.0001) %MON advcfl_uvel_max              =   4.4131035681710E-03
(PID.TID 0000.0001) %MON advcfl_vvel_max              =   2.8294497308778E-03
(PID.TID 0000.0001) %MON advcfl_wvel_max              =   1.1270775524189E-02
(PID.TID 0000.0001) %MON advcfl_W_hf_max              =   1.1270775524189E-02
(PID.TID 0000.0001) %MON pe_b_mean                    =  -6.8167924541974E-01
(PID.TID 0000.0001) %MON ke_max                       =   8.6701703133662E-04
(PID.TID 0000.0001) %MON ke_mean                      =   9.2447645166481E-07
(PID.TID 0000.0001) %MON ke_vol                       =   4.6183126301461E+12
(PID.TID 0000.0001) // =======================================================
(PID.TID 0000.0001) // End MONITOR dynamic field statistics
(PID.TID 0000.0001) // =======================================================
(PID.TID 0000.0001) // =======================================================
(PID.TID 0000.0001) // Begin OBCS MONITOR field statistics
(PID.TID 0000.0001) // =======================================================
(PID.TID 0000.0001) %MON obc_N_vVel_max               =   1.4905287775322E-08
(PID.TID 0000.0001) %MON obc_N_vVel_min               =   1.4905287775321E-08
(PID.TID 0000.0001) %MON obc_N_vVel_mean              =   1.4905287775321E-08
(PID.TID 0000.0001) %MON obc_N_vVel_sd                =  -1.5777218104420E-30
(PID.TID 0000.0001) %MON obc_N_vVel_Int               =   9.8374899317121E-01
(PID.TID 0000.0001) // =======================================================
(PID.TID 0000.0001) // End OBCS MONITOR field statistics
(PID.TID 0000.0001) // =======================================================
 cg2d: Sum(rhs),rhsMax =   3.00740458270783E+00  4.53041514571729E+02
(PID.TID 0000.0001)      cg2d_init_res =   4.70259027471113E-06
(PID.TID 0000.0001)      cg2d_iters(min,last) =      -1      77
(PID.TID 0000.0001)      cg2d_last_res =   8.59577495280524E-12
(PID.TID 0000.0001) // =======================================================
(PID.TID 0000.0001) // Begin MONITOR dynamic field statistics
(PID.TID 0000.0001) // =======================================================
(PID.TID 0000.0001) %MON time_tsnumber                =                  1324
(PID.TID 0000.0001) %MON time_secondsf                =   1.3240000000000E+05
(PID.TID 0000.0001) %MON dynstat_eta_max              =   5.7991337003297E+00
(PID.TID 0000.0001) %MON dynstat_eta_min              =  -1.4168644595907E+01
(PID.TID 0000.0001) %MON dynstat_eta_mean             =  -2.5231094945924E+00
(PID.TID 0000.0001) %MON dynstat_eta_sd               =   4.9408003692942E+00
(PID.TID 0000.0001) %MON dynstat_eta_del2             =   1.9059058345531E-01
(PID.TID 0000.0001) %MON dynstat_uvel_max             =   9.7443383255911E-03
(PID.TID 0000.0001) %MON dynstat_uvel_min             =  -4.4221572920236E-02
(PID.TID 0000.0001) %MON dynstat_uvel_mean            =   3.7721458581988E-09
(PID.TID 0000.0001) %MON dynstat_uvel_sd              =   1.2499775773989E-03
(PID.TID 0000.0001) %MON dynstat_uvel_del2            =   1.9239468941377E-06
(PID.TID 0000.0001) %MON dynstat_vvel_max             =   2.8336625610749E-02
(PID.TID 0000.0001) %MON dynstat_vvel_min             =  -1.2161536669465E-02
(PID.TID 0000.0001) %MON dynstat_vvel_mean            =   4.3228261635696E-08
(PID.TID 0000.0001) %MON dynstat_vvel_sd              =   5.6941509921117E-04
(PID.TID 0000.0001) %MON dynstat_vvel_del2            =   1.5107120430043E-06
(PID.TID 0000.0001) %MON dynstat_wvel_max             =   1.7592716538188E-03
(PID.TID 0000.0001) %MON dynstat_wvel_min             =  -2.2589430237637E-03
(PID.TID 0000.0001) %MON dynstat_wvel_mean            =   3.4881863964546E-10
(PID.TID 0000.0001) %MON dynstat_wvel_sd              =   2.9060963167503E-05
(PID.TID 0000.0001) %MON dynstat_wvel_del2            =   1.1562633489546E-07
(PID.TID 0000.0001) %MON dynstat_theta_max            =   1.2000000000000E+00
(PID.TID 0000.0001) %MON dynstat_theta_min            =  -1.0000000000000E+00
(PID.TID 0000.0001) %MON dynstat_theta_mean           =   5.6499546495431E-01
(PID.TID 0000.0001) %MON dynstat_theta_sd             =   8.4887905153794E-01
(PID.TID 0000.0001) %MON dynstat_theta_del2           =   4.1894375733793E-06
(PID.TID 0000.0001) %MON dynstat_salt_max             =   3.4700000000000E+01
(PID.TID 0000.0001) %MON dynstat_salt_min             =   3.4000000000000E+01
(PID.TID 0000.0001) %MON dynstat_salt_mean            =   3.4497912252344E+01
(PID.TID 0000.0001) %MON dynstat_salt_sd              =   2.7008984809196E-01
(PID.TID 0000.0001) %MON dynstat_salt_del2            =   1.6585633679664E-06
(PID.TID 0000.0001) %MON advcfl_uvel_max              =   4.4221572920236E-03
(PID.TID 0000.0001) %MON advcfl_vvel_max              =   2.8336625610749E-03
(PID.TID 0000.0001) %MON advcfl_wvel_max              =   1.1294715118818E-02
(PID.TID 0000.0001) %MON advcfl_W_hf_max              =   1.1294715118818E-02
(PID.TID 0000.0001) %MON pe_b_mean                    =  -6.8167673081532E-01
(PID.TID 0000.0001) %MON ke_max                       =   8.7111496133874E-04
(PID.TID 0000.0001) %MON ke_mean                      =   9.2864822935032E-07
(PID.TID 0000.0001) %MON ke_vol                       =   4.6183126798066E+12
(PID.TID 0000.0001) // =======================================================
(PID.TID 0000.0001) // End MONITOR dynamic field statistics
(PID.TID 0000.0001) // =======================================================
(PID.TID 0000.0001) // =======================================================
(PID.TID 0000.0001) // Begin OBCS MONITOR field statistics
(PID.TID 0000.0001) // =======================================================
(PID.TID 0000.0001) %MON obc_N_vVel_max               =   7.7248042650586E-09
(PID.TID 0000.0001) %MON obc_N_vVel_min               =   7.7248042650583E-09
(PID.TID 0000.0001) %MON obc_N_vVel_mean              =   7.7248042650583E-09
(PID.TID 0000.0001) %MON obc_N_vVel_sd                =   1.8610729195778E-15
(PID.TID 0000.0001) %MON obc_N_vVel_Int               =   5.0983708149385E-01
(PID.TID 0000.0001) // =======================================================
(PID.TID 0000.0001) // End OBCS MONITOR field statistics
(PID.TID 0000.0001) // =======================================================
 cg2d: Sum(rhs),rhsMax =   3.00739468844580E+00  4.53041495826348E+02
(PID.TID 0000.0001)      cg2d_init_res =   4.71069766512140E-06
(PID.TID 0000.0001)      cg2d_iters(min,last) =      -1      77
(PID.TID 0000.0001)      cg2d_last_res =   8.61564988213775E-12
(PID.TID 0000.0001) // =======================================================
(PID.TID 0000.0001) // Begin MONITOR dynamic field statistics
(PID.TID 0000.0001) // =======================================================
(PID.TID 0000.0001) %MON time_tsnumber                =                  1325
(PID.TID 0000.0001) %MON time_secondsf                =   1.3250000000000E+05
(PID.TID 0000.0001) %MON dynstat_eta_max              =   5.7991365844534E+00
(PID.TID 0000.0001) %MON dynstat_eta_min              =  -1.4168626637015E+01
(PID.TID 0000.0001) %MON dynstat_eta_mean             =  -2.5231010892476E+00
(PID.TID 0000.0001) %MON dynstat_eta_sd               =   4.9407979483062E+00
(PID.TID 0000.0001) %MON dynstat_eta_del2             =   1.9059060881025E-01
(PID.TID 0000.0001) %MON dynstat_uvel_max             =   9.7658368631732E-03
(PID.TID 0000.0001) %MON dynstat_uvel_min             =  -4.4312203601904E-02
(PID.TID 0000.0001) %MON dynstat_uvel_mean            =   3.7634252648419E-09
(PID.TID 0000.0001) %MON dynstat_uvel_sd              =   1.2528675390511E-03
(PID.TID 0000.0001) %MON dynstat_uvel_del2            =   1.9285169693419E-06
(PID.TID 0000.0001) %MON dynstat_vvel_max             =   2.8378764532238E-02
(PID.TID 0000.0001) %MON dynstat_vvel_min             =  -1.2196537565353E-02
(PID.TID 0000.0001) %MON dynstat_vvel_mean            =   3.6631058386978E-08
(PID.TID 0000.0001) %MON dynstat_vvel_sd              =   5.7053909956216E-04
(PID.TID 0000.0001) %MON dynstat_vvel_del2            =   1.5135649940714E-06
(PID.TID 0000.0001) %MON dynstat_wvel_max             =   1.7625959475327E-03
(PID.TID 0000.0001) %MON dynstat_wvel_min             =  -2.2637293096380E-03
(PID.TID 0000.0001) %MON dynstat_wvel_mean            =   3.5482205013684E-10
(PID.TID 0000.0001) %MON dynstat_wvel_sd              =   2.9118129258755E-05
(PID.TID 0000.0001) %MON dynstat_wvel_del2            =   1.1582489081101E-07
(PID.TID 0000.0001) %MON dynstat_theta_max            =   1.2000000000000E+00
(PID.TID 0000.0001) %MON dynstat_theta_min            =  -1.0000000000000E+00
(PID.TID 0000.0001) %MON dynstat_theta_mean           =   5.6499453335482E-01
(PID.TID 0000.0001) %MON dynstat_theta_sd             =   8.4887862856018E-01
(PID.TID 0000.0001) %MON dynstat_theta_del2           =   4.1971645221230E-06
(PID.TID 0000.0001) %MON dynstat_salt_max             =   3.4700000000000E+01
(PID.TID 0000.0001) %MON dynstat_salt_min             =   3.4000000000000E+01
(PID.TID 0000.0001) %MON dynstat_salt_mean            =   3.4497911879943E+01
(PID.TID 0000.0001) %MON dynstat_salt_sd              =   2.7008968843168E-01
(PID.TID 0000.0001) %MON dynstat_salt_del2            =   1.6616259168084E-06
(PID.TID 0000.0001) %MON advcfl_uvel_max              =   4.4312203601904E-03
(PID.TID 0000.0001) %MON advcfl_vvel_max              =   2.8378764532238E-03
(PID.TID 0000.0001) %MON advcfl_wvel_max              =   1.1318646548190E-02
(PID.TID 0000.0001) %MON advcfl_W_hf_max              =   1.1318646548190E-02
(PID.TID 0000.0001) %MON pe_b_mean                    =  -6.8167421029767E-01
(PID.TID 0000.0001) %MON ke_max                       =   8.7522907744402E-04
(PID.TID 0000.0001) %MON ke_mean                      =   9.3283744274749E-07
(PID.TID 0000.0001) %MON ke_vol                       =   4.6183127296021E+12
(PID.TID 0000.0001) // =======================================================
(PID.TID 0000.0001) // End MONITOR dynamic field statistics
(PID.TID 0000.0001) // =======================================================
(PID.TID 0000.0001) // =======================================================
(PID.TID 0000.0001) // Begin OBCS MONITOR field statistics
(PID.TID 0000.0001) // =======================================================
(PID.TID 0000.0001) %MON obc_N_vVel_max               =   9.9516839703515E-10
(PID.TID 0000.0001) %MON obc_N_vVel_min               =   9.9516839703515E-10
(PID.TID 0000.0001) %MON obc_N_vVel_mean              =   9.9516839703515E-10
(PID.TID 0000.0001) %MON obc_N_vVel_sd                =   1.0749688212373E-16
(PID.TID 0000.0001) %MON obc_N_vVel_Int               =   6.5681114204320E-02
(PID.TID 0000.0001) // =======================================================
(PID.TID 0000.0001) // End OBCS MONITOR field statistics
(PID.TID 0000.0001) // =======================================================
 cg2d: Sum(rhs),rhsMax =   3.00738476966526E+00  4.53041476887707E+02
(PID.TID 0000.0001)      cg2d_init_res =   4.71868575737097E-06
(PID.TID 0000.0001)      cg2d_iters(min,last) =      -1      77
(PID.TID 0000.0001)      cg2d_last_res =   8.63551636711640E-12
(PID.TID 0000.0001) // =======================================================
(PID.TID 0000.0001) // Begin MONITOR dynamic field statistics
(PID.TID 0000.0001) // =======================================================
(PID.TID 0000.0001) %MON time_tsnumber                =                  1326
(PID.TID 0000.0001) %MON time_secondsf                =   1.3260000000000E+05
(PID.TID 0000.0001) %MON dynstat_eta_max              =   5.7991394812155E+00
(PID.TID 0000.0001) %MON dynstat_eta_min              =  -1.4168608629806E+01
(PID.TID 0000.0001) %MON dynstat_eta_mean             =  -2.5230926622569E+00
(PID.TID 0000.0001) %MON dynstat_eta_sd               =   4.9407955214546E+00
(PID.TID 0000.0001) %MON dynstat_eta_del2             =   1.9059063420937E-01
(PID.TID 0000.0001) %MON dynstat_uvel_max             =   9.7873606928482E-03
(PID.TID 0000.0001) %MON dynstat_uvel_min             =  -4.4404333870279E-02
(PID.TID 0000.0001) %MON dynstat_uvel_mean            =   3.7493285412954E-09
(PID.TID 0000.0001) %MON dynstat_uvel_sd              =   1.2557631273845E-03
(PID.TID 0000.0001) %MON dynstat_uvel_del2            =   1.9330968663208E-06
(PID.TID 0000.0001) %MON dynstat_vvel_max             =   2.8420914088996E-02
(PID.TID 0000.0001) %MON dynstat_vvel_min             =  -1.2231606313557E-02
(PID.TID 0000.0001) %MON dynstat_vvel_mean            =   3.0724657234321E-08
(PID.TID 0000.0001) %MON dynstat_vvel_sd              =   5.7166506040763E-04
(PID.TID 0000.0001) %MON dynstat_vvel_del2            =   1.5164206354584E-06
(PID.TID 0000.0001) %MON dynstat_wvel_max             =   1.7659230405948E-03
(PID.TID 0000.0001) %MON dynstat_wvel_min             =  -2.2685138741953E-03
(PID.TID 0000.0001) %MON dynstat_wvel_mean            =   3.6160932821881E-10
(PID.TID 0000.0001) %MON dynstat_wvel_sd              =   2.9174706493906E-05
(PID.TID 0000.0001) %MON dynstat_wvel_del2            =   1.1601938331248E-07
(PID.TID 0000.0001) %MON dynstat_theta_max            =   1.2000000000000E+00
(PID.TID 0000.0001) %MON dynstat_theta_min            =  -1.0000000000000E+00
(PID.TID 0000.0001) %MON dynstat_theta_mean           =   5.6499360012592E-01
(PID.TID 0000.0001) %MON dynstat_theta_sd             =   8.4887820483672E-01
(PID.TID 0000.0001) %MON dynstat_theta_del2           =   4.2049021611920E-06
(PID.TID 0000.0001) %MON dynstat_salt_max             =   3.4700000000000E+01
(PID.TID 0000.0001) %MON dynstat_salt_min             =   3.4000000000000E+01
(PID.TID 0000.0001) %MON dynstat_salt_mean            =   3.4497911506889E+01
(PID.TID 0000.0001) %MON dynstat_salt_sd              =   2.7008952849325E-01
(PID.TID 0000.0001) %MON dynstat_salt_del2            =   1.6646927587858E-06
(PID.TID 0000.0001) %MON advcfl_uvel_max              =   4.4404333870279E-03
(PID.TID 0000.0001) %MON advcfl_vvel_max              =   2.8420914088996E-03
(PID.TID 0000.0001) %MON advcfl_wvel_max              =   1.1342569370977E-02
(PID.TID 0000.0001) %MON advcfl_W_hf_max              =   1.1342569370977E-02
(PID.TID 0000.0001) %MON pe_b_mean                    =  -6.8167168401416E-01
(PID.TID 0000.0001) %MON ke_max                       =   8.7935942903520E-04
(PID.TID 0000.0001) %MON ke_mean                      =   9.3704416807814E-07
(PID.TID 0000.0001) %MON ke_vol                       =   4.6183127795299E+12
(PID.TID 0000.0001) // =======================================================
(PID.TID 0000.0001) // End MONITOR dynamic field statistics
(PID.TID 0000.0001) // =======================================================
(PID.TID 0000.0001) // =======================================================
(PID.TID 0000.0001) // Begin OBCS MONITOR field statistics
(PID.TID 0000.0001) // =======================================================
(PID.TID 0000.0001) %MON obc_N_vVel_max               =  -5.1549859003916E-09
(PID.TID 0000.0001) %MON obc_N_vVel_min               =  -5.1549859003917E-09
(PID.TID 0000.0001) %MON obc_N_vVel_mean              =  -5.1549859003917E-09
(PID.TID 0000.0001) %MON obc_N_vVel_sd                =  -1.6116181774632E-30
(PID.TID 0000.0001) %MON obc_N_vVel_Int               =  -3.4022906942585E-01
(PID.TID 0000.0001) // =======================================================
(PID.TID 0000.0001) // End OBCS MONITOR field statistics
(PID.TID 0000.0001) // =======================================================
 cg2d: Sum(rhs),rhsMax =   3.00737482707863E+00  4.53041457782488E+02
(PID.TID 0000.0001)      cg2d_init_res =   4.72656941343170E-06
(PID.TID 0000.0001)      cg2d_iters(min,last) =      -1      77
(PID.TID 0000.0001)      cg2d_last_res =   8.65536990222025E-12
(PID.TID 0000.0001) // =======================================================
(PID.TID 0000.0001) // Begin MONITOR dynamic field statistics
(PID.TID 0000.0001) // =======================================================
(PID.TID 0000.0001) %MON time_tsnumber                =                  1327
(PID.TID 0000.0001) %MON time_secondsf                =   1.3270000000000E+05
(PID.TID 0000.0001) %MON dynstat_eta_max              =   5.7991423892086E+00
(PID.TID 0000.0001) %MON dynstat_eta_min              =  -1.4168590575840E+01
(PID.TID 0000.0001) %MON dynstat_eta_mean             =  -2.5230842143668E+00
(PID.TID 0000.0001) %MON dynstat_eta_sd               =   4.9407930890949E+00
(PID.TID 0000.0001) %MON dynstat_eta_del2             =   1.9059065965389E-01
(PID.TID 0000.0001) %MON dynstat_uvel_max             =   9.8089096881200E-03
(PID.TID 0000.0001) %MON dynstat_uvel_min             =  -4.4497536965943E-02
(PID.TID 0000.0001) %MON dynstat_uvel_mean            =   3.7304148640317E-09
(PID.TID 0000.0001) %MON dynstat_uvel_sd              =   1.2586643480345E-03
(PID.TID 0000.0001) %MON dynstat_uvel_del2            =   1.9376866008132E-06
(PID.TID 0000.0001) %MON dynstat_vvel_max             =   2.8463074294626E-02
(PID.TID 0000.0001) %MON dynstat_vvel_min             =  -1.2266742617214E-02
(PID.TID 0000.0001) %MON dynstat_vvel_mean            =   2.5621451031691E-08
(PID.TID 0000.0001) %MON dynstat_vvel_sd              =   5.7279301671019E-04
(PID.TID 0000.0001) %MON dynstat_vvel_del2            =   1.5192791852881E-06
(PID.TID 0000.0001) %MON dynstat_wvel_max             =   1.7692529270703E-03
(PID.TID 0000.0001) %MON dynstat_wvel_min             =  -2.2732970632932E-03
(PID.TID 0000.0001) %MON dynstat_wvel_mean            =   3.6905697769914E-10
(PID.TID 0000.0001) %MON dynstat_wvel_sd              =   2.9230793103829E-05
(PID.TID 0000.0001) %MON dynstat_wvel_del2            =   1.1621041906288E-07
(PID.TID 0000.0001) %MON dynstat_theta_max            =   1.2000000000000E+00
(PID.TID 0000.0001) %MON dynstat_theta_min            =  -1.0000000000000E+00
(PID.TID 0000.0001) %MON dynstat_theta_mean           =   5.6499266526367E-01
(PID.TID 0000.0001) %MON dynstat_theta_sd             =   8.4887778036906E-01
(PID.TID 0000.0001) %MON dynstat_theta_del2           =   4.2126501484053E-06
(PID.TID 0000.0001) %MON dynstat_salt_max             =   3.4700000000000E+01
(PID.TID 0000.0001) %MON dynstat_salt_min             =   3.4000000000000E+01
(PID.TID 0000.0001) %MON dynstat_salt_mean            =   3.4497911133179E+01
(PID.TID 0000.0001) %MON dynstat_salt_sd              =   2.7008936827718E-01
(PID.TID 0000.0001) %MON dynstat_salt_del2            =   1.6677636373832E-06
(PID.TID 0000.0001) %MON advcfl_uvel_max              =   4.4497536965943E-03
(PID.TID 0000.0001) %MON advcfl_vvel_max              =   2.8463074294626E-03
(PID.TID 0000.0001) %MON advcfl_wvel_max              =   1.1366485316466E-02
(PID.TID 0000.0001) %MON advcfl_W_hf_max              =   1.1366485316466E-02
(PID.TID 0000.0001) %MON pe_b_mean                    =  -6.8166915213532E-01
(PID.TID 0000.0001) %MON ke_max                       =   8.8350606563153E-04
(PID.TID 0000.0001) %MON ke_mean                      =   9.4126848689953E-07
(PID.TID 0000.0001) %MON ke_vol                       =   4.6183128295862E+12
(PID.TID 0000.0001) // =======================================================
(PID.TID 0000.0001) // End MONITOR dynamic field statistics
(PID.TID 0000.0001) // =======================================================
(PID.TID 0000.0001) // =======================================================
(PID.TID 0000.0001) // Begin OBCS MONITOR field statistics
(PID.TID 0000.0001) // =======================================================
(PID.TID 0000.0001) %MON obc_N_vVel_max               =  -1.0608976038935E-08
(PID.TID 0000.0001) %MON obc_N_vVel_min               =  -1.0608976038936E-08
(PID.TID 0000.0001) %MON obc_N_vVel_mean              =  -1.0608976038936E-08
(PID.TID 0000.0001) %MON obc_N_vVel_sd                =  -1.0082628444856E-29
(PID.TID 0000.0001) %MON obc_N_vVel_Int               =  -7.0019241856975E-01
(PID.TID 0000.0001) // =======================================================
(PID.TID 0000.0001) // End OBCS MONITOR field statistics
(PID.TID 0000.0001) // =======================================================
 cg2d: Sum(rhs),rhsMax =   3.00736486152521E+00  4.53041438538753E+02
(PID.TID 0000.0001)      cg2d_init_res =   4.73433030577682E-06
(PID.TID 0000.0001)      cg2d_iters(min,last) =      -1      77
(PID.TID 0000.0001)      cg2d_last_res =   8.67511014227808E-12
(PID.TID 0000.0001) // =======================================================
(PID.TID 0000.0001) // Begin MONITOR dynamic field statistics
(PID.TID 0000.0001) // =======================================================
(PID.TID 0000.0001) %MON time_tsnumber                =                  1328
(PID.TID 0000.0001) %MON time_secondsf                =   1.3280000000000E+05
(PID.TID 0000.0001) %MON dynstat_eta_max              =   5.7991453068425E+00
(PID.TID 0000.0001) %MON dynstat_eta_min              =  -1.4168572476837E+01
(PID.TID 0000.0001) %MON dynstat_eta_mean             =  -2.5230757464376E+00
(PID.TID 0000.0001) %MON dynstat_eta_sd               =   4.9407906516070E+00
(PID.TID 0000.0001) %MON dynstat_eta_del2             =   1.9059068514503E-01
(PID.TID 0000.0001) %MON dynstat_uvel_max             =   9.8304836529115E-03
(PID.TID 0000.0001) %MON dynstat_uvel_min             =  -4.4590864416136E-02
(PID.TID 0000.0001) %MON dynstat_uvel_mean            =   3.7073325257787E-09
(PID.TID 0000.0001) %MON dynstat_uvel_sd              =   1.2615712067799E-03
(PID.TID 0000.0001) %MON dynstat_uvel_del2            =   1.9422861878076E-06
(PID.TID 0000.0001) %MON dynstat_vvel_max             =   2.8505245160374E-02
(PID.TID 0000.0001) %MON dynstat_vvel_min             =  -1.2301946372610E-02
(PID.TID 0000.0001) %MON dynstat_vvel_mean            =   2.1417750730734E-08
(PID.TID 0000.0001) %MON dynstat_vvel_sd              =   5.7392301140786E-04
(PID.TID 0000.0001) %MON dynstat_vvel_del2            =   1.5221409079266E-06
(PID.TID 0000.0001) %MON dynstat_wvel_max             =   1.7725856009645E-03
(PID.TID 0000.0001) %MON dynstat_wvel_min             =  -2.2780786953614E-03
(PID.TID 0000.0001) %MON dynstat_wvel_mean            =   3.7703050848735E-10
(PID.TID 0000.0001) %MON dynstat_wvel_sd              =   2.9286526755983E-05
(PID.TID 0000.0001) %MON dynstat_wvel_del2            =   1.1639885471670E-07
(PID.TID 0000.0001) %MON dynstat_theta_max            =   1.2000000000000E+00
(PID.TID 0000.0001) %MON dynstat_theta_min            =  -1.0000000000000E+00
(PID.TID 0000.0001) %MON dynstat_theta_mean           =   5.6499172876416E-01
(PID.TID 0000.0001) %MON dynstat_theta_sd             =   8.4887735515820E-01
(PID.TID 0000.0001) %MON dynstat_theta_del2           =   4.2204080816828E-06
(PID.TID 0000.0001) %MON dynstat_salt_max             =   3.4700000000000E+01
(PID.TID 0000.0001) %MON dynstat_salt_min             =   3.4000000000000E+01
(PID.TID 0000.0001) %MON dynstat_salt_mean            =   3.4497910758814E+01
(PID.TID 0000.0001) %MON dynstat_salt_sd              =   2.7008920778394E-01
(PID.TID 0000.0001) %MON dynstat_salt_del2            =   1.6708384405939E-06
(PID.TID 0000.0001) %MON advcfl_uvel_max              =   4.4590864416136E-03
(PID.TID 0000.0001) %MON advcfl_vvel_max              =   2.8505245160374E-03
(PID.TID 0000.0001) %MON advcfl_wvel_max              =   1.1390393476807E-02
(PID.TID 0000.0001) %MON advcfl_W_hf_max              =   1.1390393476807E-02
(PID.TID 0000.0001) %MON pe_b_mean                    =  -6.8166661485125E-01
(PID.TID 0000.0001) %MON ke_max                       =   8.8766903677271E-04
(PID.TID 0000.0001) %MON ke_mean                      =   9.4551048584949E-07
(PID.TID 0000.0001) %MON ke_vol                       =   4.6183128797667E+12
(PID.TID 0000.0001) // =======================================================
(PID.TID 0000.0001) // End MONITOR dynamic field statistics
(PID.TID 0000.0001) // =======================================================
(PID.TID 0000.0001) // =======================================================
(PID.TID 0000.0001) // Begin OBCS MONITOR field statistics
(PID.TID 0000.0001) // =======================================================
(PID.TID 0000.0001) %MON obc_N_vVel_max               =  -1.5264211708138E-08
(PID.TID 0000.0001) %MON obc_N_vVel_min               =  -1.5264211708138E-08
(PID.TID 0000.0001) %MON obc_N_vVel_mean              =  -1.5264211708138E-08
(PID.TID 0000.0001) %MON obc_N_vVel_sd                =   6.6613381477509E-16
(PID.TID 0000.0001) %MON obc_N_vVel_Int               =  -1.0074379727371E+00
(PID.TID 0000.0001) // =======================================================
(PID.TID 0000.0001) // End OBCS MONITOR field statistics
(PID.TID 0000.0001) // =======================================================
 cg2d: Sum(rhs),rhsMax =   3.00735487395372E+00  4.53041419185355E+02
(PID.TID 0000.0001)      cg2d_init_res =   4.74199275448632E-06
(PID.TID 0000.0001)      cg2d_iters(min,last) =      -1      77
(PID.TID 0000.0001)      cg2d_last_res =   8.69474387810608E-12
(PID.TID 0000.0001) // =======================================================
(PID.TID 0000.0001) // Begin MONITOR dynamic field statistics
(PID.TID 0000.0001) // =======================================================
(PID.TID 0000.0001) %MON time_tsnumber                =                  1329
(PID.TID 0000.0001) %MON time_secondsf                =   1.3290000000000E+05
(PID.TID 0000.0001) %MON dynstat_eta_max              =   5.7991482324064E+00
(PID.TID 0000.0001) %MON dynstat_eta_min              =  -1.4168554334703E+01
(PID.TID 0000.0001) %MON dynstat_eta_mean             =  -2.5230672594259E+00
(PID.TID 0000.0001) %MON dynstat_eta_sd               =   4.9407882093845E+00
(PID.TID 0000.0001) %MON dynstat_eta_del2             =   1.9059071068397E-01
(PID.TID 0000.0001) %MON dynstat_uvel_max             =   9.8520824391741E-03
(PID.TID 0000.0001) %MON dynstat_uvel_min             =  -4.4684316509262E-02
(PID.TID 0000.0001) %MON dynstat_uvel_mean            =   3.6808094038265E-09
(PID.TID 0000.0001) %MON dynstat_uvel_sd              =   1.2644837093812E-03
(PID.TID 0000.0001) %MON dynstat_uvel_del2            =   1.9468956423776E-06
(PID.TID 0000.0001) %MON dynstat_vvel_max             =   2.8547426694834E-02
(PID.TID 0000.0001) %MON dynstat_vvel_min             =  -1.2337217394062E-02
(PID.TID 0000.0001) %MON dynstat_vvel_mean            =   1.8192119937190E-08
(PID.TID 0000.0001) %MON dynstat_vvel_sd              =   5.7505509306062E-04
(PID.TID 0000.0001) %MON dynstat_vvel_del2            =   1.5250060983553E-06
(PID.TID 0000.0001) %MON dynstat_wvel_max             =   1.7759210562185E-03
(PID.TID 0000.0001) %MON dynstat_wvel_min             =  -2.2828587246133E-03
(PID.TID 0000.0001) %MON dynstat_wvel_mean            =   3.8538583895980E-10
(PID.TID 0000.0001) %MON dynstat_wvel_sd              =   2.9342075623112E-05
(PID.TID 0000.0001) %MON dynstat_wvel_del2            =   1.1658574941110E-07
(PID.TID 0000.0001) %MON dynstat_theta_max            =   1.2000000000000E+00
(PID.TID 0000.0001) %MON dynstat_theta_min            =  -1.0000000000000E+00
(PID.TID 0000.0001) %MON dynstat_theta_mean           =   5.6499079062347E-01
(PID.TID 0000.0001) %MON dynstat_theta_sd             =   8.4887692920618E-01
(PID.TID 0000.0001) %MON dynstat_theta_del2           =   4.2281755083248E-06
(PID.TID 0000.0001) %MON dynstat_salt_max             =   3.4700000000000E+01
(PID.TID 0000.0001) %MON dynstat_salt_min             =   3.4000000000000E+01
(PID.TID 0000.0001) %MON dynstat_salt_mean            =   3.4497910383791E+01
(PID.TID 0000.0001) %MON dynstat_salt_sd              =   2.7008904701401E-01
(PID.TID 0000.0001) %MON dynstat_salt_del2            =   1.6739170503946E-06
(PID.TID 0000.0001) %MON advcfl_uvel_max              =   4.4684316509262E-03
(PID.TID 0000.0001) %MON advcfl_vvel_max              =   2.8547426694834E-03
(PID.TID 0000.0001) %MON advcfl_wvel_max              =   1.1414293623067E-02
(PID.TID 0000.0001) %MON advcfl_W_hf_max              =   1.1414293623067E-02
(PID.TID 0000.0001) %MON pe_b_mean                    =  -6.8166407236773E-01
(PID.TID 0000.0001) %MON ke_max                       =   8.9184839215233E-04
(PID.TID 0000.0001) %MON ke_mean                      =   9.4977025514211E-07
(PID.TID 0000.0001) %MON ke_vol                       =   4.6183129300662E+12
(PID.TID 0000.0001) // =======================================================
(PID.TID 0000.0001) // End MONITOR dynamic field statistics
(PID.TID 0000.0001) // =======================================================
(PID.TID 0000.0001) // =======================================================
(PID.TID 0000.0001) // Begin OBCS MONITOR field statistics
(PID.TID 0000.0001) // =======================================================
(PID.TID 0000.0001) %MON obc_N_vVel_max               =  -1.9034001594231E-08
(PID.TID 0000.0001) %MON obc_N_vVel_min               =  -1.9034001594231E-08
(PID.TID 0000.0001) %MON obc_N_vVel_mean              =  -1.9034001594231E-08
(PID.TID 0000.0001) %MON obc_N_vVel_sd                =  -3.4019626537656E-30
(PID.TID 0000.0001) %MON obc_N_vVel_Int               =  -1.2562441052192E+00
(PID.TID 0000.0001) // =======================================================
(PID.TID 0000.0001) // End OBCS MONITOR field statistics
(PID.TID 0000.0001) // =======================================================
 cg2d: Sum(rhs),rhsMax =   3.00734486540299E+00  4.53041399751432E+02
(PID.TID 0000.0001)      cg2d_init_res =   4.74957200061231E-06
(PID.TID 0000.0001)      cg2d_iters(min,last) =      -1      77
(PID.TID 0000.0001)      cg2d_last_res =   8.71424853622275E-12
(PID.TID 0000.0001) // =======================================================
(PID.TID 0000.0001) // Begin MONITOR dynamic field statistics
(PID.TID 0000.0001) // =======================================================
(PID.TID 0000.0001) %MON time_tsnumber                =                  1330
(PID.TID 0000.0001) %MON time_secondsf                =   1.3300000000000E+05
(PID.TID 0000.0001) %MON dynstat_eta_max              =   5.7991511640941E+00
(PID.TID 0000.0001) %MON dynstat_eta_min              =  -1.4168536151432E+01
(PID.TID 0000.0001) %MON dynstat_eta_mean             =  -2.5230587543657E+00
(PID.TID 0000.0001) %MON dynstat_eta_sd               =   4.9407857628290E+00
(PID.TID 0000.0001) %MON dynstat_eta_del2             =   1.9059073627181E-01
(PID.TID 0000.0001) %MON dynstat_uvel_max             =   9.8737058835301E-03
(PID.TID 0000.0001) %MON dynstat_uvel_min             =  -4.4777893532410E-02
(PID.TID 0000.0001) %MON dynstat_uvel_mean            =   3.6516386066615E-09
(PID.TID 0000.0001) %MON dynstat_uvel_sd              =   1.2674018615489E-03
(PID.TID 0000.0001) %MON dynstat_uvel_del2            =   1.9515149795367E-06
(PID.TID 0000.0001) %MON dynstat_vvel_max             =   2.8589618903714E-02
(PID.TID 0000.0001) %MON dynstat_vvel_min             =  -1.2372555519635E-02
(PID.TID 0000.0001) %MON dynstat_vvel_mean            =   1.6003995490807E-08
(PID.TID 0000.0001) %MON dynstat_vvel_sd              =   5.7618931335129E-04
(PID.TID 0000.0001) %MON dynstat_vvel_del2            =   1.5278750591024E-06
(PID.TID 0000.0001) %MON dynstat_wvel_max             =   1.7792592867054E-03
(PID.TID 0000.0001) %MON dynstat_wvel_min             =  -2.2876370586681E-03
(PID.TID 0000.0001) %MON dynstat_wvel_mean            =   3.9397337616529E-10
(PID.TID 0000.0001) %MON dynstat_wvel_sd              =   2.9397625085013E-05
(PID.TID 0000.0001) %MON dynstat_wvel_del2            =   1.1677227422735E-07
(PID.TID 0000.0001) %MON dynstat_theta_max            =   1.2000000000000E+00
(PID.TID 0000.0001) %MON dynstat_theta_min            =  -1.0000000000000E+00
(PID.TID 0000.0001) %MON dynstat_theta_mean           =   5.6498985083773E-01
(PID.TID 0000.0001) %MON dynstat_theta_sd             =   8.4887650251397E-01
(PID.TID 0000.0001) %MON dynstat_theta_del2           =   4.2359519709560E-06
(PID.TID 0000.0001) %MON dynstat_salt_max             =   3.4700000000000E+01
(PID.TID 0000.0001) %MON dynstat_salt_min             =   3.4000000000000E+01
(PID.TID 0000.0001) %MON dynstat_salt_mean            =   3.4497910008109E+01
(PID.TID 0000.0001) %MON dynstat_salt_sd              =   2.7008888596788E-01
(PID.TID 0000.0001) %MON dynstat_salt_del2            =   1.6769992863428E-06
(PID.TID 0000.0001) %MON advcfl_uvel_max              =   4.4777893532410E-03
(PID.TID 0000.0001) %MON advcfl_vvel_max              =   2.8589618903714E-03
(PID.TID 0000.0001) %MON advcfl_wvel_max              =   1.1438185293340E-02
(PID.TID 0000.0001) %MON advcfl_W_hf_max              =   1.1438185293340E-02
(PID.TID 0000.0001) %MON pe_b_mean                    =  -6.8166152490211E-01
(PID.TID 0000.0001) %MON ke_max                       =   8.9604418153183E-04
(PID.TID 0000.0001) %MON ke_mean                      =   9.5404788712234E-07
(PID.TID 0000.0001) %MON ke_vol                       =   4.6183129804790E+12
(PID.TID 0000.0001) // =======================================================
(PID.TID 0000.0001) // End MONITOR dynamic field statistics
(PID.TID 0000.0001) // =======================================================
(PID.TID 0000.0001) // =======================================================
(PID.TID 0000.0001) // Begin OBCS MONITOR field statistics
(PID.TID 0000.0001) // =======================================================
(PID.TID 0000.0001) %MON obc_N_vVel_max               =  -2.1849109156125E-08
(PID.TID 0000.0001) %MON obc_N_vVel_min               =  -2.1849109156125E-08
(PID.TID 0000.0001) %MON obc_N_vVel_mean              =  -2.1849109156125E-08
(PID.TID 0000.0001) %MON obc_N_vVel_sd                =   3.8587238286831E-15
(PID.TID 0000.0001) %MON obc_N_vVel_Int               =  -1.4420412043042E+00
(PID.TID 0000.0001) // =======================================================
(PID.TID 0000.0001) // End OBCS MONITOR field statistics
(PID.TID 0000.0001) // =======================================================
 cg2d: Sum(rhs),rhsMax =   3.00733483698104E+00  4.53041380265777E+02
(PID.TID 0000.0001)      cg2d_init_res =   4.75709862406007E-06
(PID.TID 0000.0001)      cg2d_iters(min,last) =      -1      77
(PID.TID 0000.0001)      cg2d_last_res =   8.73365687203660E-12
(PID.TID 0000.0001) // =======================================================
(PID.TID 0000.0001) // Begin MONITOR dynamic field statistics
(PID.TID 0000.0001) // =======================================================
(PID.TID 0000.0001) %MON time_tsnumber                =                  1331
(PID.TID 0000.0001) %MON time_secondsf                =   1.3310000000000E+05
(PID.TID 0000.0001) %MON dynstat_eta_max              =   5.7991541000317E+00
(PID.TID 0000.0001) %MON dynstat_eta_min              =  -1.4168517929096E+01
(PID.TID 0000.0001) %MON dynstat_eta_mean             =  -2.5230502323468E+00
(PID.TID 0000.0001) %MON dynstat_eta_sd               =   4.9407833123411E+00
(PID.TID 0000.0001) %MON dynstat_eta_del2             =   1.9059076190958E-01
(PID.TID 0000.0001) %MON dynstat_uvel_max             =   9.8953538194761E-03
(PID.TID 0000.0001) %MON dynstat_uvel_min             =  -4.4871595771622E-02
(PID.TID 0000.0001) %MON dynstat_uvel_mean            =   3.6206699478291E-09
(PID.TID 0000.0001) %MON dynstat_uvel_sd              =   1.2703256687927E-03
(PID.TID 0000.0001) %MON dynstat_uvel_del2            =   1.9561442123243E-06
(PID.TID 0000.0001) %MON dynstat_vvel_max             =   2.8631821789134E-02
(PID.TID 0000.0001) %MON dynstat_vvel_min             =  -1.2407960592604E-02
(PID.TID 0000.0001) %MON dynstat_vvel_mean            =   1.4892702986170E-08
(PID.TID 0000.0001) %MON dynstat_vvel_sd              =   5.7732572463972E-04
(PID.TID 0000.0001) %MON dynstat_vvel_del2            =   1.5307480776269E-06
(PID.TID 0000.0001) %MON dynstat_wvel_max             =   1.7826002861929E-03
(PID.TID 0000.0001) %MON dynstat_wvel_min             =  -2.2924136039138E-03
(PID.TID 0000.0001) %MON dynstat_wvel_mean            =   4.0264033643391E-10
(PID.TID 0000.0001) %MON dynstat_wvel_sd              =   2.9453364101027E-05
(PID.TID 0000.0001) %MON dynstat_wvel_del2            =   1.1695962083622E-07
(PID.TID 0000.0001) %MON dynstat_theta_max            =   1.2000000000000E+00
(PID.TID 0000.0001) %MON dynstat_theta_min            =  -1.0000000000000E+00
(PID.TID 0000.0001) %MON dynstat_theta_mean           =   5.6498890940304E-01
(PID.TID 0000.0001) %MON dynstat_theta_sd             =   8.4887607508260E-01
(PID.TID 0000.0001) %MON dynstat_theta_del2           =   4.2437368607606E-06
(PID.TID 0000.0001) %MON dynstat_salt_max             =   3.4700000000000E+01
(PID.TID 0000.0001) %MON dynstat_salt_min             =   3.4000000000000E+01
(PID.TID 0000.0001) %MON dynstat_salt_mean            =   3.4497909631765E+01
(PID.TID 0000.0001) %MON dynstat_salt_sd              =   2.7008872464580E-01
(PID.TID 0000.0001) %MON dynstat_salt_del2            =   1.6800850655317E-06
(PID.TID 0000.0001) %MON advcfl_uvel_max              =   4.4871595771622E-03
(PID.TID 0000.0001) %MON advcfl_vvel_max              =   2.8631821789134E-03
(PID.TID 0000.0001) %MON advcfl_wvel_max              =   1.1462068019569E-02
(PID.TID 0000.0001) %MON advcfl_W_hf_max              =   1.1462068019569E-02
(PID.TID 0000.0001) %MON pe_b_mean                    =  -6.8165897267890E-01
(PID.TID 0000.0001) %MON ke_max                       =   9.0025645475373E-04
(PID.TID 0000.0001) %MON ke_mean                      =   9.5834347468541E-07
(PID.TID 0000.0001) %MON ke_vol                       =   4.6183130309991E+12
(PID.TID 0000.0001) // =======================================================
(PID.TID 0000.0001) // End MONITOR dynamic field statistics
(PID.TID 0000.0001) // =======================================================
(PID.TID 0000.0001) // =======================================================
(PID.TID 0000.0001) // Begin OBCS MONITOR field statistics
(PID.TID 0000.0001) // =======================================================
(PID.TID 0000.0001) %MON obc_N_vVel_max               =  -2.3658910484682E-08
(PID.TID 0000.0001) %MON obc_N_vVel_min               =  -2.3658910484683E-08
(PID.TID 0000.0001) %MON obc_N_vVel_mean              =  -2.3658910484682E-08
(PID.TID 0000.0001) %MON obc_N_vVel_sd                =   5.2919336858417E-15
(PID.TID 0000.0001) %MON obc_N_vVel_Int               =  -1.5614880919890E+00
(PID.TID 0000.0001) // =======================================================
(PID.TID 0000.0001) // End OBCS MONITOR field statistics
(PID.TID 0000.0001) // =======================================================
 cg2d: Sum(rhs),rhsMax =   3.00732478984252E+00  4.53041360756305E+02
(PID.TID 0000.0001)      cg2d_init_res =   4.76456161617661E-06
(PID.TID 0000.0001)      cg2d_iters(min,last) =      -1      77
(PID.TID 0000.0001)      cg2d_last_res =   8.75284517978893E-12
(PID.TID 0000.0001) // =======================================================
(PID.TID 0000.0001) // Begin MONITOR dynamic field statistics
(PID.TID 0000.0001) // =======================================================
(PID.TID 0000.0001) %MON time_tsnumber                =                  1332
(PID.TID 0000.0001) %MON time_secondsf                =   1.3320000000000E+05
(PID.TID 0000.0001) %MON dynstat_eta_max              =   5.7991570383232E+00
(PID.TID 0000.0001) %MON dynstat_eta_min              =  -1.4168499669803E+01
(PID.TID 0000.0001) %MON dynstat_eta_mean             =  -2.5230416944934E+00
(PID.TID 0000.0001) %MON dynstat_eta_sd               =   4.9407808583179E+00
(PID.TID 0000.0001) %MON dynstat_eta_del2             =   1.9059078759849E-01
(PID.TID 0000.0001) %MON dynstat_uvel_max             =   9.9170260793491E-03
(PID.TID 0000.0001) %MON dynstat_uvel_min             =  -4.4965423512167E-02
(PID.TID 0000.0001) %MON dynstat_uvel_mean            =   3.5887630164694E-09
(PID.TID 0000.0001) %MON dynstat_uvel_sd              =   1.2732551367858E-03
(PID.TID 0000.0001) %MON dynstat_uvel_del2            =   1.9607833564669E-06
(PID.TID 0000.0001) %MON dynstat_vvel_max             =   2.8674035350249E-02
(PID.TID 0000.0001) %MON dynstat_vvel_min             =  -1.2443432458236E-02
(PID.TID 0000.0001) %MON dynstat_vvel_mean            =   1.4876816464624E-08
(PID.TID 0000.0001) %MON dynstat_vvel_sd              =   5.7846437637354E-04
(PID.TID 0000.0001) %MON dynstat_vvel_del2            =   1.5336254039235E-06
(PID.TID 0000.0001) %MON dynstat_wvel_max             =   1.7859440484698E-03
(PID.TID 0000.0001) %MON dynstat_wvel_min             =  -2.2971882660038E-03
(PID.TID 0000.0001) %MON dynstat_wvel_mean            =   4.1123262609133E-10
(PID.TID 0000.0001) %MON dynstat_wvel_sd              =   2.9509471489413E-05
(PID.TID 0000.0001) %MON dynstat_wvel_del2            =   1.1714890794408E-07
(PID.TID 0000.0001) %MON dynstat_theta_max            =   1.2000000000000E+00
(PID.TID 0000.0001) %MON dynstat_theta_min            =  -1.0000000000000E+00
(PID.TID 0000.0001) %MON dynstat_theta_mean           =   5.6498796631546E-01
(PID.TID 0000.0001) %MON dynstat_theta_sd             =   8.4887564691284E-01
(PID.TID 0000.0001) %MON dynstat_theta_del2           =   4.2515298884954E-06
(PID.TID 0000.0001) %MON dynstat_salt_max             =   3.4700000000000E+01
(PID.TID 0000.0001) %MON dynstat_salt_min             =   3.4000000000000E+01
(PID.TID 0000.0001) %MON dynstat_salt_mean            =   3.4497909254760E+01
(PID.TID 0000.0001) %MON dynstat_salt_sd              =   2.7008856304820E-01
(PID.TID 0000.0001) %MON dynstat_salt_del2            =   1.6831742737352E-06
(PID.TID 0000.0001) %MON advcfl_uvel_max              =   4.4965423512167E-03
(PID.TID 0000.0001) %MON advcfl_vvel_max              =   2.8674035350249E-03
(PID.TID 0000.0001) %MON advcfl_wvel_max              =   1.1485941330019E-02
(PID.TID 0000.0001) %MON advcfl_W_hf_max              =   1.1485941330019E-02
(PID.TID 0000.0001) %MON pe_b_mean                    =  -6.8165641592526E-01
(PID.TID 0000.0001) %MON ke_max                       =   9.0448526176185E-04
(PID.TID 0000.0001) %MON ke_mean                      =   9.6265710965853E-07
(PID.TID 0000.0001) %MON ke_vol                       =   4.6183130816199E+12
(PID.TID 0000.0001) // =======================================================
(PID.TID 0000.0001) // End MONITOR dynamic field statistics
(PID.TID 0000.0001) // =======================================================
(PID.TID 0000.0001) // =======================================================
(PID.TID 0000.0001) // Begin OBCS MONITOR field statistics
(PID.TID 0000.0001) // =======================================================
(PID.TID 0000.0001) %MON obc_N_vVel_max               =  -2.4432259712829E-08
(PID.TID 0000.0001) %MON obc_N_vVel_min               =  -2.4432259712829E-08
(PID.TID 0000.0001) %MON obc_N_vVel_mean              =  -2.4432259712829E-08
(PID.TID 0000.0001) %MON obc_N_vVel_sd                =  -2.4257472835546E-29
(PID.TID 0000.0001) %MON obc_N_vVel_Int               =  -1.6125291410467E+00
(PID.TID 0000.0001) // =======================================================
(PID.TID 0000.0001) // End OBCS MONITOR field statistics
(PID.TID 0000.0001) // =======================================================
 cg2d: Sum(rhs),rhsMax =   3.00731472516482E+00  4.53041341249567E+02
(PID.TID 0000.0001)      cg2d_init_res =   4.77200076338870E-06
(PID.TID 0000.0001)      cg2d_iters(min,last) =      -1      77
(PID.TID 0000.0001)      cg2d_last_res =   8.77187857495885E-12
(PID.TID 0000.0001) // =======================================================
(PID.TID 0000.0001) // Begin MONITOR dynamic field statistics
(PID.TID 0000.0001) // =======================================================
(PID.TID 0000.0001) %MON time_tsnumber                =                  1333
(PID.TID 0000.0001) %MON time_secondsf                =   1.3330000000000E+05
(PID.TID 0000.0001) %MON dynstat_eta_max              =   5.7991599770742E+00
(PID.TID 0000.0001) %MON dynstat_eta_min              =  -1.4168481375637E+01
(PID.TID 0000.0001) %MON dynstat_eta_mean             =  -2.5230331419412E+00
(PID.TID 0000.0001) %MON dynstat_eta_sd               =   4.9407784011374E+00
(PID.TID 0000.0001) %MON dynstat_eta_del2             =   1.9059081333941E-01
(PID.TID 0000.0001) %MON dynstat_uvel_max             =   9.9387224942307E-03
(PID.TID 0000.0001) %MON dynstat_uvel_min             =  -4.5059377038489E-02
(PID.TID 0000.0001) %MON dynstat_uvel_mean            =   3.5568024658048E-09
(PID.TID 0000.0001) %MON dynstat_uvel_sd              =   1.2761902711328E-03
(PID.TID 0000.0001) %MON dynstat_uvel_del2            =   1.9654324272636E-06
(PID.TID 0000.0001) %MON dynstat_vvel_max             =   2.8716259584161E-02
(PID.TID 0000.0001) %MON dynstat_vvel_min             =  -1.2478970963510E-02
(PID.TID 0000.0001) %MON dynstat_vvel_mean            =   1.5953972578252E-08
(PID.TID 0000.0001) %MON dynstat_vvel_sd              =   5.7960531300808E-04
(PID.TID 0000.0001) %MON dynstat_vvel_del2            =   1.5365072316545E-06
(PID.TID 0000.0001) %MON dynstat_wvel_max             =   1.7892905672158E-03
(PID.TID 0000.0001) %MON dynstat_wvel_min             =  -2.3019609496701E-03
(PID.TID 0000.0001) %MON dynstat_wvel_mean            =   4.1959947233344E-10
(PID.TID 0000.0001) %MON dynstat_wvel_sd              =   2.9566103306312E-05
(PID.TID 0000.0001) %MON dynstat_wvel_del2            =   1.1734109646758E-07
(PID.TID 0000.0001) %MON dynstat_theta_max            =   1.2000000000000E+00
(PID.TID 0000.0001) %MON dynstat_theta_min            =  -1.0000000000000E+00
(PID.TID 0000.0001) %MON dynstat_theta_mean           =   5.6498702157093E-01
(PID.TID 0000.0001) %MON dynstat_theta_sd             =   8.4887521800416E-01
(PID.TID 0000.0001) %MON dynstat_theta_del2           =   4.2593306996074E-06
(PID.TID 0000.0001) %MON dynstat_salt_max             =   3.4700000000000E+01
(PID.TID 0000.0001) %MON dynstat_salt_min             =   3.4000000000000E+01
(PID.TID 0000.0001) %MON dynstat_salt_mean            =   3.4497908877091E+01
(PID.TID 0000.0001) %MON dynstat_salt_sd              =   2.7008840117506E-01
(PID.TID 0000.0001) %MON dynstat_salt_del2            =   1.6862668232938E-06
(PID.TID 0000.0001) %MON advcfl_uvel_max              =   4.5059377038489E-03
(PID.TID 0000.0001) %MON advcfl_vvel_max              =   2.8716259584161E-03
(PID.TID 0000.0001) %MON advcfl_wvel_max              =   1.1509804748351E-02
(PID.TID 0000.0001) %MON advcfl_W_hf_max              =   1.1509804748351E-02
(PID.TID 0000.0001) %MON pe_b_mean                    =  -6.8165385486632E-01
(PID.TID 0000.0001) %MON ke_max                       =   9.0873065260348E-04
(PID.TID 0000.0001) %MON ke_mean                      =   9.6698888129256E-07
(PID.TID 0000.0001) %MON ke_vol                       =   4.6183131323347E+12
(PID.TID 0000.0001) // =======================================================
(PID.TID 0000.0001) // End MONITOR dynamic field statistics
(PID.TID 0000.0001) // =======================================================
(PID.TID 0000.0001) // =======================================================
(PID.TID 0000.0001) // Begin OBCS MONITOR field statistics
(PID.TID 0000.0001) // =======================================================
(PID.TID 0000.0001) %MON obc_N_vVel_max               =  -2.4157921178815E-08
(PID.TID 0000.0001) %MON obc_N_vVel_min               =  -2.4157921178815E-08
(PID.TID 0000.0001) %MON obc_N_vVel_mean              =  -2.4157921178815E-08
(PID.TID 0000.0001) %MON obc_N_vVel_sd                =   4.1540741810552E-15
(PID.TID 0000.0001) %MON obc_N_vVel_Int               =  -1.5944227978018E+00
(PID.TID 0000.0001) // =======================================================
(PID.TID 0000.0001) // End OBCS MONITOR field statistics
(PID.TID 0000.0001) // =======================================================
 cg2d: Sum(rhs),rhsMax =   3.00730464412409E+00  4.53041321770279E+02
(PID.TID 0000.0001)      cg2d_init_res =   4.77942071720801E-06
(PID.TID 0000.0001)      cg2d_iters(min,last) =      -1      77
(PID.TID 0000.0001)      cg2d_last_res =   8.79070788819887E-12
(PID.TID 0000.0001) // =======================================================
(PID.TID 0000.0001) // Begin MONITOR dynamic field statistics
(PID.TID 0000.0001) // =======================================================
(PID.TID 0000.0001) %MON time_tsnumber                =                  1334
(PID.TID 0000.0001) %MON time_secondsf                =   1.3340000000000E+05
(PID.TID 0000.0001) %MON dynstat_eta_max              =   5.7991629144488E+00
(PID.TID 0000.0001) %MON dynstat_eta_min              =  -1.4168463048623E+01
(PID.TID 0000.0001) %MON dynstat_eta_mean             =  -2.5230245758146E+00
(PID.TID 0000.0001) %MON dynstat_eta_sd               =   4.9407759411592E+00
(PID.TID 0000.0001) %MON dynstat_eta_del2             =   1.9059083913337E-01
(PID.TID 0000.0001) %MON dynstat_uvel_max             =   9.9604428940285E-03
(PID.TID 0000.0001) %MON dynstat_uvel_min             =  -4.5153456634729E-02
(PID.TID 0000.0001) %MON dynstat_uvel_mean            =   3.5256762098709E-09
(PID.TID 0000.0001) %MON dynstat_uvel_sd              =   1.2791310774453E-03
(PID.TID 0000.0001) %MON dynstat_uvel_del2            =   1.9700914407243E-06
(PID.TID 0000.0001) %MON dynstat_vvel_max             =   2.8758494484421E-02
(PID.TID 0000.0001) %MON dynstat_vvel_min             =  -1.2514575957765E-02
(PID.TID 0000.0001) %MON dynstat_vvel_mean            =   1.8101049523302E-08
(PID.TID 0000.0001) %MON dynstat_vvel_sd              =   5.8074857165630E-04
(PID.TID 0000.0001) %MON dynstat_vvel_del2            =   1.5393936829302E-06
(PID.TID 0000.0001) %MON dynstat_wvel_max             =   1.7926398361165E-03
(PID.TID 0000.0001) %MON dynstat_wvel_min             =  -2.3067315586549E-03
(PID.TID 0000.0001) %MON dynstat_wvel_mean            =   4.2759499272301E-10
(PID.TID 0000.0001) %MON dynstat_wvel_sd              =   2.9623382275612E-05
(PID.TID 0000.0001) %MON dynstat_wvel_del2            =   1.1753691802820E-07
(PID.TID 0000.0001) %MON dynstat_theta_max            =   1.2000000000000E+00
(PID.TID 0000.0001) %MON dynstat_theta_min            =  -1.0000000000000E+00
(PID.TID 0000.0001) %MON dynstat_theta_mean           =   5.6498607516521E-01
(PID.TID 0000.0001) %MON dynstat_theta_sd             =   8.4887478835611E-01
(PID.TID 0000.0001) %MON dynstat_theta_del2           =   4.2671390186817E-06
(PID.TID 0000.0001) %MON dynstat_salt_max             =   3.4700000000000E+01
(PID.TID 0000.0001) %MON dynstat_salt_min             =   3.4000000000000E+01
(PID.TID 0000.0001) %MON dynstat_salt_mean            =   3.4497908498756E+01
(PID.TID 0000.0001) %MON dynstat_salt_sd              =   2.7008823902626E-01
(PID.TID 0000.0001) %MON dynstat_salt_del2            =   1.6893626716561E-06
(PID.TID 0000.0001) %MON advcfl_uvel_max              =   4.5153456634729E-03
(PID.TID 0000.0001) %MON advcfl_vvel_max              =   2.8758494484421E-03
(PID.TID 0000.0001) %MON advcfl_wvel_max              =   1.1533657793275E-02
(PID.TID 0000.0001) %MON advcfl_W_hf_max              =   1.1533657793275E-02
(PID.TID 0000.0001) %MON pe_b_mean                    =  -6.8165128972083E-01
(PID.TID 0000.0001) %MON ke_max                       =   9.1299267744784E-04
(PID.TID 0000.0001) %MON ke_mean                      =   9.7133887496310E-07
(PID.TID 0000.0001) %MON ke_vol                       =   4.6183131831369E+12
(PID.TID 0000.0001) // =======================================================
(PID.TID 0000.0001) // End MONITOR dynamic field statistics
(PID.TID 0000.0001) // =======================================================
(PID.TID 0000.0001) // =======================================================
(PID.TID 0000.0001) // Begin OBCS MONITOR field statistics
(PID.TID 0000.0001) // =======================================================
(PID.TID 0000.0001) %MON obc_N_vVel_max               =  -2.2844645679633E-08
(PID.TID 0000.0001) %MON obc_N_vVel_min               =  -2.2844645679633E-08
(PID.TID 0000.0001) %MON obc_N_vVel_mean              =  -2.2844645679633E-08
(PID.TID 0000.0001) %MON obc_N_vVel_sd                =   1.2560739669470E-15
(PID.TID 0000.0001) %MON obc_N_vVel_Int               =  -1.5077466148558E+00
(PID.TID 0000.0001) // =======================================================
(PID.TID 0000.0001) // End OBCS MONITOR field statistics
(PID.TID 0000.0001) // =======================================================
 cg2d: Sum(rhs),rhsMax =   3.00729454787634E+00  4.53041302340859E+02
(PID.TID 0000.0001)      cg2d_init_res =   4.78680854371619E-06
(PID.TID 0000.0001)      cg2d_iters(min,last) =      -1      77
(PID.TID 0000.0001)      cg2d_last_res =   8.80925410308899E-12
(PID.TID 0000.0001) // =======================================================
(PID.TID 0000.0001) // Begin MONITOR dynamic field statistics
(PID.TID 0000.0001) // =======================================================
(PID.TID 0000.0001) %MON time_tsnumber                =                  1335
(PID.TID 0000.0001) %MON time_secondsf                =   1.3350000000000E+05
(PID.TID 0000.0001) %MON dynstat_eta_max              =   5.7991658486855E+00
(PID.TID 0000.0001) %MON dynstat_eta_min              =  -1.4168444690704E+01
(PID.TID 0000.0001) %MON dynstat_eta_mean             =  -2.5230159972083E+00
(PID.TID 0000.0001) %MON dynstat_eta_sd               =   4.9407734787171E+00
(PID.TID 0000.0001) %MON dynstat_eta_del2             =   1.9059086498154E-01
(PID.TID 0000.0001) %MON dynstat_uvel_max             =   9.9821871078634E-03
(PID.TID 0000.0001) %MON dynstat_uvel_min             =  -4.5247662586505E-02
(PID.TID 0000.0001) %MON dynstat_uvel_mean            =   3.4962648986849E-09
(PID.TID 0000.0001) %MON dynstat_uvel_sd              =   1.2820775614638E-03
(PID.TID 0000.0001) %MON dynstat_uvel_del2            =   1.9747604157944E-06
(PID.TID 0000.0001) %MON dynstat_vvel_max             =   2.8800740041388E-02
(PID.TID 0000.0001) %MON dynstat_vvel_min             =  -1.2550247293435E-02
(PID.TID 0000.0001) %MON dynstat_vvel_mean            =   2.1274741992936E-08
(PID.TID 0000.0001) %MON dynstat_vvel_sd              =   5.8189418022027E-04
(PID.TID 0000.0001) %MON dynstat_vvel_del2            =   1.5422847979583E-06
(PID.TID 0000.0001) %MON dynstat_wvel_max             =   1.7959918487984E-03
(PID.TID 0000.0001) %MON dynstat_wvel_min             =  -2.3114999957838E-03
(PID.TID 0000.0001) %MON dynstat_wvel_mean            =   4.3508124331122E-10
(PID.TID 0000.0001) %MON dynstat_wvel_sd              =   2.9681390014090E-05
(PID.TID 0000.0001) %MON dynstat_wvel_del2            =   1.1773682304664E-07
(PID.TID 0000.0001) %MON dynstat_theta_max            =   1.2000000000000E+00
(PID.TID 0000.0001) %MON dynstat_theta_min            =  -1.0000000000000E+00
(PID.TID 0000.0001) %MON dynstat_theta_mean           =   5.6498512709422E-01
(PID.TID 0000.0001) %MON dynstat_theta_sd             =   8.4887435796826E-01
(PID.TID 0000.0001) %MON dynstat_theta_del2           =   4.2749541865783E-06
(PID.TID 0000.0001) %MON dynstat_salt_max             =   3.4700000000000E+01
(PID.TID 0000.0001) %MON dynstat_salt_min             =   3.4000000000000E+01
(PID.TID 0000.0001) %MON dynstat_salt_mean            =   3.4497908119755E+01
(PID.TID 0000.0001) %MON dynstat_salt_sd              =   2.7008807660172E-01
(PID.TID 0000.0001) %MON dynstat_salt_del2            =   1.6924616402030E-06
(PID.TID 0000.0001) %MON advcfl_uvel_max              =   4.5247662586505E-03
(PID.TID 0000.0001) %MON advcfl_vvel_max              =   2.8800740041388E-03
(PID.TID 0000.0001) %MON advcfl_wvel_max              =   1.1557499978919E-02
(PID.TID 0000.0001) %MON advcfl_W_hf_max              =   1.1557499978919E-02
(PID.TID 0000.0001) %MON pe_b_mean                    =  -6.8164872069738E-01
(PID.TID 0000.0001) %MON ke_max                       =   9.1727138666443E-04
(PID.TID 0000.0001) %MON ke_mean                      =   9.7570717119681E-07
(PID.TID 0000.0001) %MON ke_vol                       =   4.6183132340197E+12
(PID.TID 0000.0001) // =======================================================
(PID.TID 0000.0001) // End MONITOR dynamic field statistics
(PID.TID 0000.0001) // =======================================================
(PID.TID 0000.0001) // =======================================================
(PID.TID 0000.0001) // Begin OBCS MONITOR field statistics
(PID.TID 0000.0001) // =======================================================
(PID.TID 0000.0001) %MON obc_N_vVel_max               =  -2.0520895416271E-08
(PID.TID 0000.0001) %MON obc_N_vVel_min               =  -2.0520895416271E-08
(PID.TID 0000.0001) %MON obc_N_vVel_mean              =  -2.0520895416271E-08
(PID.TID 0000.0001) %MON obc_N_vVel_sd                =   2.1642230995786E-15
(PID.TID 0000.0001) %MON obc_N_vVel_Int               =  -1.3543790974739E+00
(PID.TID 0000.0001) // =======================================================
(PID.TID 0000.0001) // End OBCS MONITOR field statistics
(PID.TID 0000.0001) // =======================================================
 cg2d: Sum(rhs),rhsMax =   3.00728443753235E+00  4.53041282981083E+02
(PID.TID 0000.0001)      cg2d_init_res =   4.79427566329270E-06
(PID.TID 0000.0001)      cg2d_iters(min,last) =      -1      77
(PID.TID 0000.0001)      cg2d_last_res =   8.82789173571819E-12
(PID.TID 0000.0001) // =======================================================
(PID.TID 0000.0001) // Begin MONITOR dynamic field statistics
(PID.TID 0000.0001) // =======================================================
(PID.TID 0000.0001) %MON time_tsnumber                =                  1336
(PID.TID 0000.0001) %MON time_secondsf                =   1.3360000000000E+05
(PID.TID 0000.0001) %MON dynstat_eta_max              =   5.7991687781452E+00
(PID.TID 0000.0001) %MON dynstat_eta_min              =  -1.4168426303673E+01
(PID.TID 0000.0001) %MON dynstat_eta_mean             =  -2.5230074071643E+00
(PID.TID 0000.0001) %MON dynstat_eta_sd               =   4.9407710140968E+00
(PID.TID 0000.0001) %MON dynstat_eta_del2             =   1.9059089088408E-01
(PID.TID 0000.0001) %MON dynstat_uvel_max             =   1.0003954961423E-02
(PID.TID 0000.0001) %MON dynstat_uvel_min             =  -4.5341995173145E-02
(PID.TID 0000.0001) %MON dynstat_uvel_mean            =   3.4693553425234E-09
(PID.TID 0000.0001) %MON dynstat_uvel_sd              =   1.2850297287192E-03
(PID.TID 0000.0001) %MON dynstat_uvel_del2            =   1.9794393651504E-06
(PID.TID 0000.0001) %MON dynstat_vvel_max             =   2.8842996242576E-02
(PID.TID 0000.0001) %MON dynstat_vvel_min             =  -1.2585984818779E-02
(PID.TID 0000.0001) %MON dynstat_vvel_mean            =   2.5412510872525E-08
(PID.TID 0000.0001) %MON dynstat_vvel_sd              =   5.8304215694156E-04
(PID.TID 0000.0001) %MON dynstat_vvel_del2            =   1.5451805346271E-06
(PID.TID 0000.0001) %MON dynstat_wvel_max             =   1.7993465988035E-03
(PID.TID 0000.0001) %MON dynstat_wvel_min             =  -2.3162661629673E-03
(PID.TID 0000.0001) %MON dynstat_wvel_mean            =   4.4193232027617E-10
(PID.TID 0000.0001) %MON dynstat_wvel_sd              =   2.9740162556260E-05
(PID.TID 0000.0001) %MON dynstat_wvel_del2            =   1.1794095200661E-07
(PID.TID 0000.0001) %MON dynstat_theta_max            =   1.2000000000000E+00
(PID.TID 0000.0001) %MON dynstat_theta_min            =  -1.0000000000000E+00
(PID.TID 0000.0001) %MON dynstat_theta_mean           =   5.6498417735389E-01
(PID.TID 0000.0001) %MON dynstat_theta_sd             =   8.4887392683980E-01
(PID.TID 0000.0001) %MON dynstat_theta_del2           =   4.2827766391497E-06
(PID.TID 0000.0001) %MON dynstat_salt_max             =   3.4700000000000E+01
(PID.TID 0000.0001) %MON dynstat_salt_min             =   3.4000000000000E+01
(PID.TID 0000.0001) %MON dynstat_salt_mean            =   3.4497907740085E+01
(PID.TID 0000.0001) %MON dynstat_salt_sd              =   2.7008791390136E-01
(PID.TID 0000.0001) %MON dynstat_salt_del2            =   1.6955638542366E-06
(PID.TID 0000.0001) %MON advcfl_uvel_max              =   4.5341995173145E-03
(PID.TID 0000.0001) %MON advcfl_vvel_max              =   2.8842996242576E-03
(PID.TID 0000.0001) %MON advcfl_wvel_max              =   1.1581330814837E-02
(PID.TID 0000.0001) %MON advcfl_W_hf_max              =   1.1581330814837E-02
(PID.TID 0000.0001) %MON pe_b_mean                    =  -6.8164614799003E-01
(PID.TID 0000.0001) %MON ke_max                       =   9.2156683057254E-04
(PID.TID 0000.0001) %MON ke_mean                      =   9.8009384493103E-07
(PID.TID 0000.0001) %MON ke_vol                       =   4.6183132849766E+12
(PID.TID 0000.0001) // =======================================================
(PID.TID 0000.0001) // End MONITOR dynamic field statistics
(PID.TID 0000.0001) // =======================================================
(PID.TID 0000.0001) // =======================================================
(PID.TID 0000.0001) // Begin OBCS MONITOR field statistics
(PID.TID 0000.0001) // =======================================================
(PID.TID 0000.0001) %MON obc_N_vVel_max               =  -1.7234149986676E-08
(PID.TID 0000.0001) %MON obc_N_vVel_min               =  -1.7234149986676E-08
(PID.TID 0000.0001) %MON obc_N_vVel_mean              =  -1.7234149986676E-08
(PID.TID 0000.0001) %MON obc_N_vVel_sd                =   1.9484335006297E-15
(PID.TID 0000.0001) %MON obc_N_vVel_Int               =  -1.1374538991206E+00
(PID.TID 0000.0001) // =======================================================
(PID.TID 0000.0001) // End OBCS MONITOR field statistics
(PID.TID 0000.0001) // =======================================================
 cg2d: Sum(rhs),rhsMax =   3.00727431413511E+00  4.53041263707796E+02
(PID.TID 0000.0001)      cg2d_init_res =   4.80177756908680E-06
(PID.TID 0000.0001)      cg2d_iters(min,last) =      -1      77
(PID.TID 0000.0001)      cg2d_last_res =   8.84624812131920E-12
(PID.TID 0000.0001) // =======================================================
(PID.TID 0000.0001) // Begin MONITOR dynamic field statistics
(PID.TID 0000.0001) // =======================================================
(PID.TID 0000.0001) %MON time_tsnumber                =                  1337
(PID.TID 0000.0001) %MON time_secondsf                =   1.3370000000000E+05
(PID.TID 0000.0001) %MON dynstat_eta_max              =   5.7991717013230E+00
(PID.TID 0000.0001) %MON dynstat_eta_min              =  -1.4168407889151E+01
(PID.TID 0000.0001) %MON dynstat_eta_mean             =  -2.5229988066514E+00
(PID.TID 0000.0001) %MON dynstat_eta_sd               =   4.9407685475518E+00
(PID.TID 0000.0001) %MON dynstat_eta_del2             =   1.9059091684152E-01
(PID.TID 0000.0001) %MON dynstat_uvel_max             =   1.0025746281009E-02
(PID.TID 0000.0001) %MON dynstat_uvel_min             =  -4.5436454675795E-02
(PID.TID 0000.0001) %MON dynstat_uvel_mean            =   3.4457328458286E-09
(PID.TID 0000.0001) %MON dynstat_uvel_sd              =   1.2879875847440E-03
(PID.TID 0000.0001) %MON dynstat_uvel_del2            =   1.9841283045071E-06
(PID.TID 0000.0001) %MON dynstat_vvel_max             =   2.8885263072821E-02
(PID.TID 0000.0001) %MON dynstat_vvel_min             =  -1.2621788388595E-02
(PID.TID 0000.0001) %MON dynstat_vvel_mean            =   3.0433906144834E-08
(PID.TID 0000.0001) %MON dynstat_vvel_sd              =   5.8419250943920E-04
(PID.TID 0000.0001) %MON dynstat_vvel_del2            =   1.5480807681189E-06
(PID.TID 0000.0001) %MON dynstat_wvel_max             =   1.8027040796235E-03
(PID.TID 0000.0001) %MON dynstat_wvel_min             =  -2.3210299608928E-03
(PID.TID 0000.0001) %MON dynstat_wvel_mean            =   4.4803330187718E-10
(PID.TID 0000.0001) %MON dynstat_wvel_sd              =   2.9799689594087E-05
(PID.TID 0000.0001) %MON dynstat_wvel_del2            =   1.1814913086251E-07
(PID.TID 0000.0001) %MON dynstat_theta_max            =   1.2000000000000E+00
(PID.TID 0000.0001) %MON dynstat_theta_min            =  -1.0000000000000E+00
(PID.TID 0000.0001) %MON dynstat_theta_mean           =   5.6498322594005E-01
(PID.TID 0000.0001) %MON dynstat_theta_sd             =   8.4887349496929E-01
(PID.TID 0000.0001) %MON dynstat_theta_del2           =   4.2906064158615E-06
(PID.TID 0000.0001) %MON dynstat_salt_max             =   3.4700000000000E+01
(PID.TID 0000.0001) %MON dynstat_salt_min             =   3.4000000000000E+01
(PID.TID 0000.0001) %MON dynstat_salt_mean            =   3.4497907359745E+01
(PID.TID 0000.0001) %MON dynstat_salt_sd              =   2.7008775092448E-01
(PID.TID 0000.0001) %MON dynstat_salt_del2            =   1.6986692134687E-06
(PID.TID 0000.0001) %MON advcfl_uvel_max              =   4.5436454675795E-03
(PID.TID 0000.0001) %MON advcfl_vvel_max              =   2.8885263072821E-03
(PID.TID 0000.0001) %MON advcfl_wvel_max              =   1.1605149804464E-02
(PID.TID 0000.0001) %MON advcfl_W_hf_max              =   1.1605149804464E-02
(PID.TID 0000.0001) %MON pe_b_mean                    =  -6.8164357177440E-01
(PID.TID 0000.0001) %MON ke_max                       =   9.2587905964956E-04
(PID.TID 0000.0001) %MON ke_mean                      =   9.8449896516112E-07
(PID.TID 0000.0001) %MON ke_vol                       =   4.6183133360014E+12
(PID.TID 0000.0001) // =======================================================
(PID.TID 0000.0001) // End MONITOR dynamic field statistics
(PID.TID 0000.0001) // =======================================================
(PID.TID 0000.0001) // =======================================================
(PID.TID 0000.0001) // Begin OBCS MONITOR field statistics
(PID.TID 0000.0001) // =======================================================
(PID.TID 0000.0001) %MON obc_N_vVel_max               =  -1.3049873311483E-08
(PID.TID 0000.0001) %MON obc_N_vVel_min               =  -1.3049873311483E-08
(PID.TID 0000.0001) %MON obc_N_vVel_mean              =  -1.3049873311483E-08
(PID.TID 0000.0001) %MON obc_N_vVel_sd                =   2.9163173068811E-15
(PID.TID 0000.0001) %MON obc_N_vVel_Int               =  -8.6129163855789E-01
(PID.TID 0000.0001) // =======================================================
(PID.TID 0000.0001) // End OBCS MONITOR field statistics
(PID.TID 0000.0001) // =======================================================
 cg2d: Sum(rhs),rhsMax =   3.00726417864026E+00  4.53041244534675E+02
(PID.TID 0000.0001)      cg2d_init_res =   4.80931199380657E-06
(PID.TID 0000.0001)      cg2d_iters(min,last) =      -1      77
(PID.TID 0000.0001)      cg2d_last_res =   8.86446864488141E-12
(PID.TID 0000.0001) // =======================================================
(PID.TID 0000.0001) // Begin MONITOR dynamic field statistics
(PID.TID 0000.0001) // =======================================================
(PID.TID 0000.0001) %MON time_tsnumber                =                  1338
(PID.TID 0000.0001) %MON time_secondsf                =   1.3380000000000E+05
(PID.TID 0000.0001) %MON dynstat_eta_max              =   5.7991746169042E+00
(PID.TID 0000.0001) %MON dynstat_eta_min              =  -1.4168389448566E+01
(PID.TID 0000.0001) %MON dynstat_eta_mean             =  -2.5229901965476E+00
(PID.TID 0000.0001) %MON dynstat_eta_sd               =   4.9407660792866E+00
(PID.TID 0000.0001) %MON dynstat_eta_del2             =   1.9059094285406E-01
(PID.TID 0000.0001) %MON dynstat_uvel_max             =   1.0047560891576E-02
(PID.TID 0000.0001) %MON dynstat_uvel_min             =  -4.5531041374329E-02
(PID.TID 0000.0001) %MON dynstat_uvel_mean            =   3.4261120530651E-09
(PID.TID 0000.0001) %MON dynstat_uvel_sd              =   1.2909511350654E-03
(PID.TID 0000.0001) %MON dynstat_uvel_del2            =   1.9888272496334E-06
(PID.TID 0000.0001) %MON dynstat_vvel_max             =   2.8927540514395E-02
(PID.TID 0000.0001) %MON dynstat_vvel_min             =  -1.2657657857661E-02
(PID.TID 0000.0001) %MON dynstat_vvel_mean            =   3.6242227825532E-08
(PID.TID 0000.0001) %MON dynstat_vvel_sd              =   5.8534523515158E-04
(PID.TID 0000.0001) %MON dynstat_vvel_del2            =   1.5509853003565E-06
(PID.TID 0000.0001) %MON dynstat_wvel_max             =   1.8060642846928E-03
(PID.TID 0000.0001) %MON dynstat_wvel_min             =  -2.3257912895905E-03
(PID.TID 0000.0001) %MON dynstat_wvel_mean            =   4.5328535130399E-10
(PID.TID 0000.0001) %MON dynstat_wvel_sd              =   2.9859917077142E-05
(PID.TID 0000.0001) %MON dynstat_wvel_del2            =   1.1836089180348E-07
(PID.TID 0000.0001) %MON dynstat_theta_max            =   1.2000000000000E+00
(PID.TID 0000.0001) %MON dynstat_theta_min            =  -1.0000000000000E+00
(PID.TID 0000.0001) %MON dynstat_theta_mean           =   5.6498227284851E-01
(PID.TID 0000.0001) %MON dynstat_theta_sd             =   8.4887306235327E-01
(PID.TID 0000.0001) %MON dynstat_theta_del2           =   4.2984437064984E-06
(PID.TID 0000.0001) %MON dynstat_salt_max             =   3.4700000000000E+01
(PID.TID 0000.0001) %MON dynstat_salt_min             =   3.4000000000000E+01
(PID.TID 0000.0001) %MON dynstat_salt_mean            =   3.4497906978733E+01
(PID.TID 0000.0001) %MON dynstat_salt_sd              =   2.7008758767020E-01
(PID.TID 0000.0001) %MON dynstat_salt_del2            =   1.7017778150034E-06
(PID.TID 0000.0001) %MON advcfl_uvel_max              =   4.5531041374329E-03
(PID.TID 0000.0001) %MON advcfl_vvel_max              =   2.8927540514395E-03
(PID.TID 0000.0001) %MON advcfl_wvel_max              =   1.1628956447953E-02
(PID.TID 0000.0001) %MON advcfl_W_hf_max              =   1.1628956447953E-02
(PID.TID 0000.0001) %MON pe_b_mean                    =  -6.8164099220455E-01
(PID.TID 0000.0001) %MON ke_max                       =   9.3020812446409E-04
(PID.TID 0000.0001) %MON ke_mean                      =   9.8892259512812E-07
(PID.TID 0000.0001) %MON ke_vol                       =   4.6183133870885E+12
(PID.TID 0000.0001) // =======================================================
(PID.TID 0000.0001) // End MONITOR dynamic field statistics
(PID.TID 0000.0001) // =======================================================
(PID.TID 0000.0001) // =======================================================
(PID.TID 0000.0001) // Begin OBCS MONITOR field statistics
(PID.TID 0000.0001) // =======================================================
(PID.TID 0000.0001) %MON obc_N_vVel_max               =  -8.0501557685565E-09
(PID.TID 0000.0001) %MON obc_N_vVel_min               =  -8.0501557685568E-09
(PID.TID 0000.0001) %MON obc_N_vVel_mean              =  -8.0501557685565E-09
(PID.TID 0000.0001) %MON obc_N_vVel_sd                =   1.2111103358676E-15
(PID.TID 0000.0001) %MON obc_N_vVel_Int               =  -5.3131028072473E-01
(PID.TID 0000.0001) // =======================================================
(PID.TID 0000.0001) // End OBCS MONITOR field statistics
(PID.TID 0000.0001) // =======================================================
 cg2d: Sum(rhs),rhsMax =   3.00725403189763E+00  4.53041225472030E+02
(PID.TID 0000.0001)      cg2d_init_res =   4.81689598926672E-06
(PID.TID 0000.0001)      cg2d_iters(min,last) =      -1      77
(PID.TID 0000.0001)      cg2d_last_res =   8.88258135391219E-12
(PID.TID 0000.0001) // =======================================================
(PID.TID 0000.0001) // Begin MONITOR dynamic field statistics
(PID.TID 0000.0001) // =======================================================
(PID.TID 0000.0001) %MON time_tsnumber                =                  1339
(PID.TID 0000.0001) %MON time_secondsf                =   1.3390000000000E+05
(PID.TID 0000.0001) %MON dynstat_eta_max              =   5.7991775237476E+00
(PID.TID 0000.0001) %MON dynstat_eta_min              =  -1.4168370983100E+01
(PID.TID 0000.0001) %MON dynstat_eta_mean             =  -2.5229815776234E+00
(PID.TID 0000.0001) %MON dynstat_eta_sd               =   4.9407636094587E+00
(PID.TID 0000.0001) %MON dynstat_eta_del2             =   1.9059096892185E-01
(PID.TID 0000.0001) %MON dynstat_uvel_max             =   1.0069398616030E-02
(PID.TID 0000.0001) %MON dynstat_uvel_min             =  -4.5625755547469E-02
(PID.TID 0000.0001) %MON dynstat_uvel_mean            =   3.4111241497583E-09
(PID.TID 0000.0001) %MON dynstat_uvel_sd              =   1.2939203851836E-03
(PID.TID 0000.0001) %MON dynstat_uvel_del2            =   1.9935362165191E-06
(PID.TID 0000.0001) %MON dynstat_vvel_max             =   2.8969828547189E-02
(PID.TID 0000.0001) %MON dynstat_vvel_min             =  -1.2693593080416E-02
(PID.TID 0000.0001) %MON dynstat_vvel_mean            =   4.2726465934321E-08
(PID.TID 0000.0001) %MON dynstat_vvel_sd              =   5.8650032223933E-04
(PID.TID 0000.0001) %MON dynstat_vvel_del2            =   1.5538938737464E-06
(PID.TID 0000.0001) %MON dynstat_wvel_max             =   1.8094272073642E-03
(PID.TID 0000.0001) %MON dynstat_wvel_min             =  -2.3305500481165E-03
(PID.TID 0000.0001) %MON dynstat_wvel_mean            =   4.5760605435379E-10
(PID.TID 0000.0001) %MON dynstat_wvel_sd              =   2.9920753164223E-05
(PID.TID 0000.0001) %MON dynstat_wvel_del2            =   1.1857551550279E-07
(PID.TID 0000.0001) %MON dynstat_theta_max            =   1.2000000000000E+00
(PID.TID 0000.0001) %MON dynstat_theta_min            =  -1.0000000000000E+00
(PID.TID 0000.0001) %MON dynstat_theta_mean           =   5.6498131807507E-01
(PID.TID 0000.0001) %MON dynstat_theta_sd             =   8.4887262898924E-01
(PID.TID 0000.0001) %MON dynstat_theta_del2           =   4.3062887619265E-06
(PID.TID 0000.0001) %MON dynstat_salt_max             =   3.4700000000000E+01
(PID.TID 0000.0001) %MON dynstat_salt_min             =   3.4000000000000E+01
(PID.TID 0000.0001) %MON dynstat_salt_mean            =   3.4497906597048E+01
(PID.TID 0000.0001) %MON dynstat_salt_sd              =   2.7008742413779E-01
(PID.TID 0000.0001) %MON dynstat_salt_del2            =   1.7048897195583E-06
(PID.TID 0000.0001) %MON advcfl_uvel_max              =   4.5625755547469E-03
(PID.TID 0000.0001) %MON advcfl_vvel_max              =   2.8969828547189E-03
(PID.TID 0000.0001) %MON advcfl_wvel_max              =   1.1652750240583E-02
(PID.TID 0000.0001) %MON advcfl_W_hf_max              =   1.1652750240583E-02
(PID.TID 0000.0001) %MON pe_b_mean                    =  -6.8163840940994E-01
(PID.TID 0000.0001) %MON ke_max                       =   9.3455407571054E-04
(PID.TID 0000.0001) %MON ke_mean                      =   9.9336479276132E-07
(PID.TID 0000.0001) %MON ke_vol                       =   4.6183134382325E+12
(PID.TID 0000.0001) // =======================================================
(PID.TID 0000.0001) // End MONITOR dynamic field statistics
(PID.TID 0000.0001) // =======================================================
(PID.TID 0000.0001) // =======================================================
(PID.TID 0000.0001) // Begin OBCS MONITOR field statistics
(PID.TID 0000.0001) // =======================================================
(PID.TID 0000.0001) %MON obc_N_vVel_max               =  -2.3320399544190E-09
(PID.TID 0000.0001) %MON obc_N_vVel_min               =  -2.3320399544191E-09
(PID.TID 0000.0001) %MON obc_N_vVel_mean              =  -2.3320399544190E-09
(PID.TID 0000.0001) %MON obc_N_vVel_sd                =   8.2383111885997E-16
(PID.TID 0000.0001) %MON obc_N_vVel_Int               =  -1.5391463699166E-01
(PID.TID 0000.0001) // =======================================================
(PID.TID 0000.0001) // End OBCS MONITOR field statistics
(PID.TID 0000.0001) // =======================================================
 cg2d: Sum(rhs),rhsMax =   3.00724387463463E+00  4.53041206526743E+02
(PID.TID 0000.0001)      cg2d_init_res =   4.82453015285614E-06
(PID.TID 0000.0001)      cg2d_iters(min,last) =      -1      77
(PID.TID 0000.0001)      cg2d_last_res =   8.90059651688622E-12
(PID.TID 0000.0001) // =======================================================
(PID.TID 0000.0001) // Begin MONITOR dynamic field statistics
(PID.TID 0000.0001) // =======================================================
(PID.TID 0000.0001) %MON time_tsnumber                =                  1340
(PID.TID 0000.0001) %MON time_secondsf                =   1.3400000000000E+05
(PID.TID 0000.0001) %MON dynstat_eta_max              =   5.7991804209598E+00
(PID.TID 0000.0001) %MON dynstat_eta_min              =  -1.4168352493684E+01
(PID.TID 0000.0001) %MON dynstat_eta_mean             =  -2.5229729505271E+00
(PID.TID 0000.0001) %MON dynstat_eta_sd               =   4.9407611381745E+00
(PID.TID 0000.0001) %MON dynstat_eta_del2             =   1.9059099504496E-01
(PID.TID 0000.0001) %MON dynstat_uvel_max             =   1.0091259275684E-02
(PID.TID 0000.0001) %MON dynstat_uvel_min             =  -4.5720597472674E-02
(PID.TID 0000.0001) %MON dynstat_uvel_mean            =   3.4013119895355E-09
(PID.TID 0000.0001) %MON dynstat_uvel_sd              =   1.2968953405766E-03
(PID.TID 0000.0001) %MON dynstat_uvel_del2            =   1.9982552212785E-06
(PID.TID 0000.0001) %MON dynstat_vvel_max             =   2.9012127149147E-02
(PID.TID 0000.0001) %MON dynstat_vvel_min             =  -1.2729593911494E-02
(PID.TID 0000.0001) %MON dynstat_vvel_mean            =   4.9763503431762E-08
(PID.TID 0000.0001) %MON dynstat_vvel_sd              =   5.8765775109176E-04
(PID.TID 0000.0001) %MON dynstat_vvel_del2            =   1.5568061891731E-06
(PID.TID 0000.0001) %MON dynstat_wvel_max             =   1.8127928409358E-03
(PID.TID 0000.0001) %MON dynstat_wvel_min             =  -2.3353061346993E-03
(PID.TID 0000.0001) %MON dynstat_wvel_mean            =   4.6093178980919E-10
(PID.TID 0000.0001) %MON dynstat_wvel_sd              =   2.9982076819558E-05
(PID.TID 0000.0001) %MON dynstat_wvel_del2            =   1.1879209190134E-07
(PID.TID 0000.0001) %MON dynstat_theta_max            =   1.2000000000000E+00
(PID.TID 0000.0001) %MON dynstat_theta_min            =  -1.0000000000000E+00
(PID.TID 0000.0001) %MON dynstat_theta_mean           =   5.6498036161552E-01
(PID.TID 0000.0001) %MON dynstat_theta_sd             =   8.4887219487525E-01
(PID.TID 0000.0001) %MON dynstat_theta_del2           =   4.3141418644086E-06
(PID.TID 0000.0001) %MON dynstat_salt_max             =   3.4700000000000E+01
(PID.TID 0000.0001) %MON dynstat_salt_min             =   3.4000000000000E+01
(PID.TID 0000.0001) %MON dynstat_salt_mean            =   3.4497906214688E+01
(PID.TID 0000.0001) %MON dynstat_salt_sd              =   2.7008726032654E-01
(PID.TID 0000.0001) %MON dynstat_salt_del2            =   1.7080050028764E-06
(PID.TID 0000.0001) %MON advcfl_uvel_max              =   4.5720597472674E-03
(PID.TID 0000.0001) %MON advcfl_vvel_max              =   2.9012127149147E-03
(PID.TID 0000.0001) %MON advcfl_wvel_max              =   1.1676530673497E-02
(PID.TID 0000.0001) %MON advcfl_W_hf_max              =   1.1676530673497E-02
(PID.TID 0000.0001) %MON pe_b_mean                    =  -6.8163582349317E-01
(PID.TID 0000.0001) %MON ke_max                       =   9.3891696470186E-04
(PID.TID 0000.0001) %MON ke_mean                      =   9.9782561151513E-07
(PID.TID 0000.0001) %MON ke_vol                       =   4.6183134894289E+12
(PID.TID 0000.0001) // =======================================================
(PID.TID 0000.0001) // End MONITOR dynamic field statistics
(PID.TID 0000.0001) // =======================================================
(PID.TID 0000.0001) // =======================================================
(PID.TID 0000.0001) // Begin OBCS MONITOR field statistics
(PID.TID 0000.0001) // =======================================================
(PID.TID 0000.0001) %MON obc_N_vVel_max               =   3.9944020597351E-09
(PID.TID 0000.0001) %MON obc_N_vVel_min               =   3.9944020597351E-09
(PID.TID 0000.0001) %MON obc_N_vVel_mean              =   3.9944020597351E-09
(PID.TID 0000.0001) %MON obc_N_vVel_sd                =   5.0573065619421E-16
(PID.TID 0000.0001) %MON obc_N_vVel_Int               =   2.6363053594252E-01
(PID.TID 0000.0001) // =======================================================
(PID.TID 0000.0001) // End OBCS MONITOR field statistics
(PID.TID 0000.0001) // =======================================================
 cg2d: Sum(rhs),rhsMax =   3.00723370744158E+00  4.53041187702233E+02
(PID.TID 0000.0001)      cg2d_init_res =   4.83221450044576E-06
(PID.TID 0000.0001)      cg2d_iters(min,last) =      -1      77
(PID.TID 0000.0001)      cg2d_last_res =   8.91853872390619E-12
(PID.TID 0000.0001) // =======================================================
(PID.TID 0000.0001) // Begin MONITOR dynamic field statistics
(PID.TID 0000.0001) // =======================================================
(PID.TID 0000.0001) %MON time_tsnumber                =                  1341
(PID.TID 0000.0001) %MON time_secondsf                =   1.3410000000000E+05
(PID.TID 0000.0001) %MON dynstat_eta_max              =   5.7991833078674E+00
(PID.TID 0000.0001) %MON dynstat_eta_min              =  -1.4168333980975E+01
(PID.TID 0000.0001) %MON dynstat_eta_mean             =  -2.5229643157732E+00
(PID.TID 0000.0001) %MON dynstat_eta_sd               =   4.9407586654874E+00
(PID.TID 0000.0001) %MON dynstat_eta_del2             =   1.9059102122332E-01
(PID.TID 0000.0001) %MON dynstat_uvel_max             =   1.0113142690273E-02
(PID.TID 0000.0001) %MON dynstat_uvel_min             =  -4.5815567425524E-02
(PID.TID 0000.0001) %MON dynstat_uvel_mean            =   3.3971181366638E-09
(PID.TID 0000.0001) %MON dynstat_uvel_sd              =   1.2998760066939E-03
(PID.TID 0000.0001) %MON dynstat_uvel_del2            =   2.0029842800612E-06
(PID.TID 0000.0001) %MON dynstat_vvel_max             =   2.9054436296466E-02
(PID.TID 0000.0001) %MON dynstat_vvel_min             =  -1.2765660205266E-02
(PID.TID 0000.0001) %MON dynstat_vvel_mean            =   5.7220553988487E-08
(PID.TID 0000.0001) %MON dynstat_vvel_sd              =   5.8881749618361E-04
(PID.TID 0000.0001) %MON dynstat_vvel_del2            =   1.5597219263287E-06
(PID.TID 0000.0001) %MON dynstat_wvel_max             =   1.8161611786128E-03
(PID.TID 0000.0001) %MON dynstat_wvel_min             =  -2.3400594467636E-03
(PID.TID 0000.0001) %MON dynstat_wvel_mean            =   4.6321801013327E-10
(PID.TID 0000.0001) %MON dynstat_wvel_sd              =   3.0043748328530E-05
(PID.TID 0000.0001) %MON dynstat_wvel_del2            =   1.1900959377735E-07
(PID.TID 0000.0001) %MON dynstat_theta_max            =   1.2000000000000E+00
(PID.TID 0000.0001) %MON dynstat_theta_min            =  -1.0000000000000E+00
(PID.TID 0000.0001) %MON dynstat_theta_mean           =   5.6497940346563E-01
(PID.TID 0000.0001) %MON dynstat_theta_sd             =   8.4887176001020E-01
(PID.TID 0000.0001) %MON dynstat_theta_del2           =   4.3220033709794E-06
(PID.TID 0000.0001) %MON dynstat_salt_max             =   3.4700000000000E+01
(PID.TID 0000.0001) %MON dynstat_salt_min             =   3.4000000000000E+01
(PID.TID 0000.0001) %MON dynstat_salt_mean            =   3.4497905831651E+01
(PID.TID 0000.0001) %MON dynstat_salt_sd              =   2.7008709623625E-01
(PID.TID 0000.0001) %MON dynstat_salt_del2            =   1.7111237632595E-06
(PID.TID 0000.0001) %MON advcfl_uvel_max              =   4.5815567425524E-03
(PID.TID 0000.0001) %MON advcfl_vvel_max              =   2.9054436296466E-03
(PID.TID 0000.0001) %MON advcfl_wvel_max              =   1.1700297233818E-02
(PID.TID 0000.0001) %MON advcfl_W_hf_max              =   1.1700297233818E-02
(PID.TID 0000.0001) %MON pe_b_mean                    =  -6.8163323452791E-01
(PID.TID 0000.0001) %MON ke_max                       =   9.4329684307901E-04
(PID.TID 0000.0001) %MON ke_mean                      =   1.0023051014074E-06
(PID.TID 0000.0001) %MON ke_vol                       =   4.6183135406739E+12
(PID.TID 0000.0001) // =======================================================
(PID.TID 0000.0001) // End MONITOR dynamic field statistics
(PID.TID 0000.0001) // =======================================================
(PID.TID 0000.0001) // =======================================================
(PID.TID 0000.0001) // Begin OBCS MONITOR field statistics
(PID.TID 0000.0001) // =======================================================
(PID.TID 0000.0001) %MON obc_N_vVel_max               =   1.0808314527061E-08
(PID.TID 0000.0001) %MON obc_N_vVel_min               =   1.0808314527061E-08
(PID.TID 0000.0001) %MON obc_N_vVel_mean              =   1.0808314527061E-08
(PID.TID 0000.0001) %MON obc_N_vVel_sd                =  -5.3494630135300E-30
(PID.TID 0000.0001) %MON obc_N_vVel_Int               =   7.1334875878602E-01
(PID.TID 0000.0001) // =======================================================
(PID.TID 0000.0001) // End OBCS MONITOR field statistics
(PID.TID 0000.0001) // =======================================================
 cg2d: Sum(rhs),rhsMax =   3.00722353075922E+00  4.53041168998457E+02
(PID.TID 0000.0001)      cg2d_init_res =   4.83994672758973E-06
(PID.TID 0000.0001)      cg2d_iters(min,last) =      -1      77
(PID.TID 0000.0001)      cg2d_last_res =   8.93642614826629E-12
(PID.TID 0000.0001) // =======================================================
(PID.TID 0000.0001) // Begin MONITOR dynamic field statistics
(PID.TID 0000.0001) // =======================================================
(PID.TID 0000.0001) %MON time_tsnumber                =                  1342
(PID.TID 0000.0001) %MON time_secondsf                =   1.3420000000000E+05
(PID.TID 0000.0001) %MON dynstat_eta_max              =   5.7991861840435E+00
(PID.TID 0000.0001) %MON dynstat_eta_min              =  -1.4168315445343E+01
(PID.TID 0000.0001) %MON dynstat_eta_mean             =  -2.5229556737312E+00
(PID.TID 0000.0001) %MON dynstat_eta_sd               =   4.9407561913952E+00
(PID.TID 0000.0001) %MON dynstat_eta_del2             =   1.9059104745668E-01
(PID.TID 0000.0001) %MON dynstat_uvel_max             =   1.0135048677859E-02
(PID.TID 0000.0001) %MON dynstat_uvel_min             =  -4.5910665679786E-02
(PID.TID 0000.0001) %MON dynstat_uvel_mean            =   3.3988725883686E-09
(PID.TID 0000.0001) %MON dynstat_uvel_sd              =   1.3028623889397E-03
(PID.TID 0000.0001) %MON dynstat_uvel_del2            =   2.0077234089216E-06
(PID.TID 0000.0001) %MON dynstat_vvel_max             =   2.9096755964022E-02
(PID.TID 0000.0001) %MON dynstat_vvel_min             =  -1.2801791929132E-02
(PID.TID 0000.0001) %MON dynstat_vvel_mean            =   6.4957768255821E-08
(PID.TID 0000.0001) %MON dynstat_vvel_sd              =   5.8997952818371E-04
(PID.TID 0000.0001) %MON dynstat_vvel_del2            =   1.5626407650985E-06
(PID.TID 0000.0001) %MON dynstat_wvel_max             =   1.8195322135332E-03
(PID.TID 0000.0001) %MON dynstat_wvel_min             =  -2.3448098809704E-03
(PID.TID 0000.0001) %MON dynstat_wvel_mean            =   4.6444022428822E-10
(PID.TID 0000.0001) %MON dynstat_wvel_sd              =   3.0105620874774E-05
(PID.TID 0000.0001) %MON dynstat_wvel_del2            =   1.1922695723619E-07
(PID.TID 0000.0001) %MON dynstat_theta_max            =   1.2000000000000E+00
(PID.TID 0000.0001) %MON dynstat_theta_min            =  -1.0000000000000E+00
(PID.TID 0000.0001) %MON dynstat_theta_mean           =   5.6497844362094E-01
(PID.TID 0000.0001) %MON dynstat_theta_sd             =   8.4887132439372E-01
(PID.TID 0000.0001) %MON dynstat_theta_del2           =   4.3298737268956E-06
(PID.TID 0000.0001) %MON dynstat_salt_max             =   3.4700000000000E+01
(PID.TID 0000.0001) %MON dynstat_salt_min             =   3.4000000000000E+01
(PID.TID 0000.0001) %MON dynstat_salt_mean            =   3.4497905447937E+01
(PID.TID 0000.0001) %MON dynstat_salt_sd              =   2.7008693186688E-01
(PID.TID 0000.0001) %MON dynstat_salt_del2            =   1.7142461218723E-06
(PID.TID 0000.0001) %MON advcfl_uvel_max              =   4.5910665679786E-03
(PID.TID 0000.0001) %MON advcfl_vvel_max              =   2.9096755964022E-03
(PID.TID 0000.0001) %MON advcfl_wvel_max              =   1.1724049404852E-02
(PID.TID 0000.0001) %MON advcfl_W_hf_max              =   1.1724049404852E-02
(PID.TID 0000.0001) %MON pe_b_mean                    =  -6.8163064255726E-01
(PID.TID 0000.0001) %MON ke_max                       =   9.4769376257892E-04
(PID.TID 0000.0001) %MON ke_mean                      =   1.0068033102063E-06
(PID.TID 0000.0001) %MON ke_vol                       =   4.6183135919643E+12
(PID.TID 0000.0001) // =======================================================
(PID.TID 0000.0001) // End MONITOR dynamic field statistics
(PID.TID 0000.0001) // =======================================================
(PID.TID 0000.0001) // =======================================================
(PID.TID 0000.0001) // Begin OBCS MONITOR field statistics
(PID.TID 0000.0001) // =======================================================
(PID.TID 0000.0001) %MON obc_N_vVel_max               =   1.7980417877976E-08
(PID.TID 0000.0001) %MON obc_N_vVel_min               =   1.7980417877976E-08
(PID.TID 0000.0001) %MON obc_N_vVel_mean              =   1.7980417877976E-08
(PID.TID 0000.0001) %MON obc_N_vVel_sd                =   3.5388086795394E-15
(PID.TID 0000.0001) %MON obc_N_vVel_Int               =   1.1867075799464E+00
(PID.TID 0000.0001) // =======================================================
(PID.TID 0000.0001) // End OBCS MONITOR field statistics
(PID.TID 0000.0001) // =======================================================
 cg2d: Sum(rhs),rhsMax =   3.00721334487057E+00  4.53041150412130E+02
(PID.TID 0000.0001)      cg2d_init_res =   4.84772394903624E-06
(PID.TID 0000.0001)      cg2d_iters(min,last) =      -1      77
(PID.TID 0000.0001)      cg2d_last_res =   8.95428022434720E-12
(PID.TID 0000.0001) // =======================================================
(PID.TID 0000.0001) // Begin MONITOR dynamic field statistics
(PID.TID 0000.0001) // =======================================================
(PID.TID 0000.0001) %MON time_tsnumber                =                  1343
(PID.TID 0000.0001) %MON time_secondsf                =   1.3430000000000E+05
(PID.TID 0000.0001) %MON dynstat_eta_max              =   5.7991890493152E+00
(PID.TID 0000.0001) %MON dynstat_eta_min              =  -1.4168296886856E+01
(PID.TID 0000.0001) %MON dynstat_eta_mean             =  -2.5229470246201E+00
(PID.TID 0000.0001) %MON dynstat_eta_sd               =   4.9407537158421E+00
(PID.TID 0000.0001) %MON dynstat_eta_del2             =   1.9059107374468E-01
(PID.TID 0000.0001) %MON dynstat_uvel_max             =   1.0156977054605E-02
(PID.TID 0000.0001) %MON dynstat_uvel_min             =  -4.6005892507664E-02
(PID.TID 0000.0001) %MON dynstat_uvel_mean            =   3.4067907680035E-09
(PID.TID 0000.0001) %MON dynstat_uvel_sd              =   1.3058544926357E-03
(PID.TID 0000.0001) %MON dynstat_uvel_del2            =   2.0124726236247E-06
(PID.TID 0000.0001) %MON dynstat_vvel_max             =   2.9139086124680E-02
(PID.TID 0000.0001) %MON dynstat_vvel_min             =  -1.2837989437950E-02
(PID.TID 0000.0001) %MON dynstat_vvel_mean            =   7.2830960889962E-08
(PID.TID 0000.0001) %MON dynstat_vvel_sd              =   5.9114381611119E-04
(PID.TID 0000.0001) %MON dynstat_vvel_del2            =   1.5655624063442E-06
(PID.TID 0000.0001) %MON dynstat_wvel_max             =   1.8229059384302E-03
(PID.TID 0000.0001) %MON dynstat_wvel_min             =  -2.3495573332216E-03
(PID.TID 0000.0001) %MON dynstat_wvel_mean            =   4.6459448643073E-10
(PID.TID 0000.0001) %MON dynstat_wvel_sd              =   3.0167552233320E-05
(PID.TID 0000.0001) %MON dynstat_wvel_del2            =   1.1944316256241E-07
(PID.TID 0000.0001) %MON dynstat_theta_max            =   1.2000000000000E+00
(PID.TID 0000.0001) %MON dynstat_theta_min            =  -1.0000000000000E+00
(PID.TID 0000.0001) %MON dynstat_theta_mean           =   5.6497748207694E-01
(PID.TID 0000.0001) %MON dynstat_theta_sd             =   8.4887088802588E-01
(PID.TID 0000.0001) %MON dynstat_theta_del2           =   4.3377513826116E-06
(PID.TID 0000.0001) %MON dynstat_salt_max             =   3.4700000000000E+01
(PID.TID 0000.0001) %MON dynstat_salt_min             =   3.4000000000000E+01
(PID.TID 0000.0001) %MON dynstat_salt_mean            =   3.4497905063542E+01
(PID.TID 0000.0001) %MON dynstat_salt_sd              =   2.7008676721841E-01
(PID.TID 0000.0001) %MON dynstat_salt_del2            =   1.7173714391079E-06
(PID.TID 0000.0001) %MON advcfl_uvel_max              =   4.6005892507664E-03
(PID.TID 0000.0001) %MON advcfl_vvel_max              =   2.9139086124680E-03
(PID.TID 0000.0001) %MON advcfl_wvel_max              =   1.1747786666108E-02
(PID.TID 0000.0001) %MON advcfl_W_hf_max              =   1.1747786666108E-02
(PID.TID 0000.0001) %MON pe_b_mean                    =  -6.8162804759325E-01
(PID.TID 0000.0001) %MON ke_max                       =   9.5210777504441E-04
(PID.TID 0000.0001) %MON ke_mean                      =   1.0113202846345E-06
(PID.TID 0000.0001) %MON ke_vol                       =   4.6183136432980E+12
(PID.TID 0000.0001) // =======================================================
(PID.TID 0000.0001) // End MONITOR dynamic field statistics
(PID.TID 0000.0001) // =======================================================
(PID.TID 0000.0001) // =======================================================
(PID.TID 0000.0001) // Begin OBCS MONITOR field statistics
(PID.TID 0000.0001) // =======================================================
(PID.TID 0000.0001) %MON obc_N_vVel_max               =   2.5375528282960E-08
(PID.TID 0000.0001) %MON obc_N_vVel_min               =   2.5375528282960E-08
(PID.TID 0000.0001) %MON obc_N_vVel_mean              =   2.5375528282960E-08
(PID.TID 0000.0001) %MON obc_N_vVel_sd                =  -1.6171648557031E-29
(PID.TID 0000.0001) %MON obc_N_vVel_Int               =   1.6747848666754E+00
(PID.TID 0000.0001) // =======================================================
(PID.TID 0000.0001) // End OBCS MONITOR field statistics
(PID.TID 0000.0001) // =======================================================
 cg2d: Sum(rhs),rhsMax =   3.00720314989720E+00  4.53041131936835E+02
(PID.TID 0000.0001)      cg2d_init_res =   4.85549457058294E-06
(PID.TID 0000.0001)      cg2d_iters(min,last) =      -1      77
(PID.TID 0000.0001)      cg2d_last_res =   8.97170507865857E-12
(PID.TID 0000.0001) // =======================================================
(PID.TID 0000.0001) // Begin MONITOR dynamic field statistics
(PID.TID 0000.0001) // =======================================================
(PID.TID 0000.0001) %MON time_tsnumber                =                  1344
(PID.TID 0000.0001) %MON time_secondsf                =   1.3440000000000E+05
(PID.TID 0000.0001) %MON dynstat_eta_max              =   5.7991919037686E+00
(PID.TID 0000.0001) %MON dynstat_eta_min              =  -1.4168278305288E+01
(PID.TID 0000.0001) %MON dynstat_eta_mean             =  -2.5229383685064E+00
(PID.TID 0000.0001) %MON dynstat_eta_sd               =   4.9407512387099E+00
(PID.TID 0000.0001) %MON dynstat_eta_del2             =   1.9059110008660E-01
(PID.TID 0000.0001) %MON dynstat_uvel_max             =   1.0178927633652E-02
(PID.TID 0000.0001) %MON dynstat_uvel_min             =  -4.6101248180951E-02
(PID.TID 0000.0001) %MON dynstat_uvel_mean            =   3.4209805930429E-09
(PID.TID 0000.0001) %MON dynstat_uvel_sd              =   1.3088523231151E-03
(PID.TID 0000.0001) %MON dynstat_uvel_del2            =   2.0172319304903E-06
(PID.TID 0000.0001) %MON dynstat_vvel_max             =   2.9181426748704E-02
(PID.TID 0000.0001) %MON dynstat_vvel_min             =  -1.2874252927134E-02
(PID.TID 0000.0001) %MON dynstat_vvel_mean            =   8.0694401530975E-08
(PID.TID 0000.0001) %MON dynstat_vvel_sd              =   5.9231033051711E-04
(PID.TID 0000.0001) %MON dynstat_vvel_del2            =   1.5684865921439E-06
(PID.TID 0000.0001) %MON dynstat_wvel_max             =   1.8262823454205E-03
(PID.TID 0000.0001) %MON dynstat_wvel_min             =  -2.3543016986613E-03
(PID.TID 0000.0001) %MON dynstat_wvel_mean            =   4.6369752859030E-10
(PID.TID 0000.0001) %MON dynstat_wvel_sd              =   3.0229415621216E-05
(PID.TID 0000.0001) %MON dynstat_wvel_del2            =   1.1965730985199E-07
(PID.TID 0000.0001) %MON dynstat_theta_max            =   1.2000000000000E+00
(PID.TID 0000.0001) %MON dynstat_theta_min            =  -1.0000000000000E+00
(PID.TID 0000.0001) %MON dynstat_theta_mean           =   5.6497651882914E-01
(PID.TID 0000.0001) %MON dynstat_theta_sd             =   8.4887045090666E-01
(PID.TID 0000.0001) %MON dynstat_theta_del2           =   4.3456383001085E-06
(PID.TID 0000.0001) %MON dynstat_salt_max             =   3.4700000000000E+01
(PID.TID 0000.0001) %MON dynstat_salt_min             =   3.4000000000000E+01
(PID.TID 0000.0001) %MON dynstat_salt_mean            =   3.4497904678466E+01
(PID.TID 0000.0001) %MON dynstat_salt_sd              =   2.7008660229091E-01
(PID.TID 0000.0001) %MON dynstat_salt_del2            =   1.7205004675432E-06
(PID.TID 0000.0001) %MON advcfl_uvel_max              =   4.6101248180951E-03
(PID.TID 0000.0001) %MON advcfl_vvel_max              =   2.9181426748704E-03
(PID.TID 0000.0001) %MON advcfl_wvel_max              =   1.1771508493306E-02
(PID.TID 0000.0001) %MON advcfl_W_hf_max              =   1.1771508493306E-02
(PID.TID 0000.0001) %MON pe_b_mean                    =  -6.8162544961678E-01
(PID.TID 0000.0001) %MON ke_max                       =   9.5653893249496E-04
(PID.TID 0000.0001) %MON ke_mean                      =   1.0158560723615E-06
(PID.TID 0000.0001) %MON ke_vol                       =   4.6183136946738E+12
(PID.TID 0000.0001) // =======================================================
(PID.TID 0000.0001) // End MONITOR dynamic field statistics
(PID.TID 0000.0001) // =======================================================
(PID.TID 0000.0001) // =======================================================
(PID.TID 0000.0001) // Begin OBCS MONITOR field statistics
(PID.TID 0000.0001) // =======================================================
(PID.TID 0000.0001) %MON obc_N_vVel_max               =   3.2855205354859E-08
(PID.TID 0000.0001) %MON obc_N_vVel_min               =   3.2855205354859E-08
(PID.TID 0000.0001) %MON obc_N_vVel_mean              =   3.2855205354859E-08
(PID.TID 0000.0001) %MON obc_N_vVel_sd                =  -5.1867604518282E-29
(PID.TID 0000.0001) %MON obc_N_vVel_Int               =   2.1684435534207E+00
(PID.TID 0000.0001) // =======================================================
(PID.TID 0000.0001) // End OBCS MONITOR field statistics
(PID.TID 0000.0001) // =======================================================
 cg2d: Sum(rhs),rhsMax =   3.00719294579640E+00  4.53041113563310E+02
(PID.TID 0000.0001)      cg2d_init_res =   4.86335685287629E-06
(PID.TID 0000.0001)      cg2d_iters(min,last) =      -1      77
(PID.TID 0000.0001)      cg2d_last_res =   8.98962062349888E-12
(PID.TID 0000.0001) // =======================================================
(PID.TID 0000.0001) // Begin MONITOR dynamic field statistics
(PID.TID 0000.0001) // =======================================================
(PID.TID 0000.0001) %MON time_tsnumber                =                  1345
(PID.TID 0000.0001) %MON time_secondsf                =   1.3450000000000E+05
(PID.TID 0000.0001) %MON dynstat_eta_max              =   5.7991947477383E+00
(PID.TID 0000.0001) %MON dynstat_eta_min              =  -1.4168259700119E+01
(PID.TID 0000.0001) %MON dynstat_eta_mean             =  -2.5229297053025E+00
(PID.TID 0000.0001) %MON dynstat_eta_sd               =   4.9407487598512E+00
(PID.TID 0000.0001) %MON dynstat_eta_del2             =   1.9059112648212E-01
(PID.TID 0000.0001) %MON dynstat_uvel_max             =   1.0200900229297E-02
(PID.TID 0000.0001) %MON dynstat_uvel_min             =  -4.6196732957419E-02
(PID.TID 0000.0001) %MON dynstat_uvel_mean            =   3.4414160028911E-09
(PID.TID 0000.0001) %MON dynstat_uvel_sd              =   1.3118558856175E-03
(PID.TID 0000.0001) %MON dynstat_uvel_del2            =   2.0220013452984E-06
(PID.TID 0000.0001) %MON dynstat_vvel_max             =   2.9223777806090E-02
(PID.TID 0000.0001) %MON dynstat_vvel_min             =  -1.2910582592282E-02
(PID.TID 0000.0001) %MON dynstat_vvel_mean            =   8.8403599923384E-08
(PID.TID 0000.0001) %MON dynstat_vvel_sd              =   5.9347904343322E-04
(PID.TID 0000.0001) %MON dynstat_vvel_del2            =   1.5714131213743E-06
(PID.TID 0000.0001) %MON dynstat_wvel_max             =   1.8296614265672E-03
(PID.TID 0000.0001) %MON dynstat_wvel_min             =  -2.3590428722899E-03
(PID.TID 0000.0001) %MON dynstat_wvel_mean            =   4.6178443279260E-10
(PID.TID 0000.0001) %MON dynstat_wvel_sd              =   3.0291109233841E-05
(PID.TID 0000.0001) %MON dynstat_wvel_del2            =   1.1986868333467E-07
(PID.TID 0000.0001) %MON dynstat_theta_max            =   1.2000000000000E+00
(PID.TID 0000.0001) %MON dynstat_theta_min            =  -1.0000000000000E+00
(PID.TID 0000.0001) %MON dynstat_theta_mean           =   5.6497555387312E-01
(PID.TID 0000.0001) %MON dynstat_theta_sd             =   8.4887001303724E-01
(PID.TID 0000.0001) %MON dynstat_theta_del2           =   4.3535347276937E-06
(PID.TID 0000.0001) %MON dynstat_salt_max             =   3.4700000000000E+01
(PID.TID 0000.0001) %MON dynstat_salt_min             =   3.4000000000000E+01
(PID.TID 0000.0001) %MON dynstat_salt_mean            =   3.4497904292707E+01
(PID.TID 0000.0001) %MON dynstat_salt_sd              =   2.7008643708473E-01
(PID.TID 0000.0001) %MON dynstat_salt_del2            =   1.7236332804169E-06
(PID.TID 0000.0001) %MON advcfl_uvel_max              =   4.6196732957419E-03
(PID.TID 0000.0001) %MON advcfl_vvel_max              =   2.9223777806090E-03
(PID.TID 0000.0001) %MON advcfl_wvel_max              =   1.1795214361450E-02
(PID.TID 0000.0001) %MON advcfl_W_hf_max              =   1.1795214361450E-02
(PID.TID 0000.0001) %MON pe_b_mean                    =  -6.8162284857826E-01
(PID.TID 0000.0001) %MON ke_max                       =   9.6098728651915E-04
(PID.TID 0000.0001) %MON ke_mean                      =   1.0204107218478E-06
(PID.TID 0000.0001) %MON ke_vol                       =   4.6183137460911E+12
(PID.TID 0000.0001) // =======================================================
(PID.TID 0000.0001) // End MONITOR dynamic field statistics
(PID.TID 0000.0001) // =======================================================
(PID.TID 0000.0001) // =======================================================
(PID.TID 0000.0001) // Begin OBCS MONITOR field statistics
(PID.TID 0000.0001) // =======================================================
(PID.TID 0000.0001) %MON obc_N_vVel_max               =   4.0280383839641E-08
(PID.TID 0000.0001) %MON obc_N_vVel_min               =   4.0280383839639E-08
(PID.TID 0000.0001) %MON obc_N_vVel_mean              =   4.0280383839641E-08
(PID.TID 0000.0001) %MON obc_N_vVel_sd                =  -1.2385116211970E-28
(PID.TID 0000.0001) %MON obc_N_vVel_Int               =   2.6585053334163E+00
(PID.TID 0000.0001) // =======================================================
(PID.TID 0000.0001) // End OBCS MONITOR field statistics
(PID.TID 0000.0001) // =======================================================
 cg2d: Sum(rhs),rhsMax =   3.00718273236070E+00  4.53041095279772E+02
(PID.TID 0000.0001)      cg2d_init_res =   4.87125807295592E-06
(PID.TID 0000.0001)      cg2d_iters(min,last) =      -1      77
(PID.TID 0000.0001)      cg2d_last_res =   9.00758547025338E-12
(PID.TID 0000.0001) // =======================================================
(PID.TID 0000.0001) // Begin MONITOR dynamic field statistics
(PID.TID 0000.0001) // =======================================================
(PID.TID 0000.0001) %MON time_tsnumber                =                  1346
(PID.TID 0000.0001) %MON time_secondsf                =   1.3460000000000E+05
(PID.TID 0000.0001) %MON dynstat_eta_max              =   5.7991975818019E+00
(PID.TID 0000.0001) %MON dynstat_eta_min              =  -1.4168241070543E+01
(PID.TID 0000.0001) %MON dynstat_eta_mean             =  -2.5229210347687E+00
(PID.TID 0000.0001) %MON dynstat_eta_sd               =   4.9407462790619E+00
(PID.TID 0000.0001) %MON dynstat_eta_del2             =   1.9059115293062E-01
(PID.TID 0000.0001) %MON dynstat_uvel_max             =   1.0222894651915E-02
(PID.TID 0000.0001) %MON dynstat_uvel_min             =  -4.6292347111566E-02
(PID.TID 0000.0001) %MON dynstat_uvel_mean            =   3.4679452057934E-09
(PID.TID 0000.0001) %MON dynstat_uvel_sd              =   1.3148651853270E-03
(PID.TID 0000.0001) %MON dynstat_uvel_del2            =   2.0267808837090E-06
(PID.TID 0000.0001) %MON dynstat_vvel_max             =   2.9266139266876E-02
(PID.TID 0000.0001) %MON dynstat_vvel_min             =  -1.2946978628225E-02
(PID.TID 0000.0001) %MON dynstat_vvel_mean            =   9.5818082516796E-08
(PID.TID 0000.0001) %MON dynstat_vvel_sd              =   5.9464993074620E-04
(PID.TID 0000.0001) %MON dynstat_vvel_del2            =   1.5743418610103E-06
(PID.TID 0000.0001) %MON dynstat_wvel_max             =   1.8330431737817E-03
(PID.TID 0000.0001) %MON dynstat_wvel_min             =  -2.3637807479374E-03
(PID.TID 0000.0001) %MON dynstat_wvel_mean            =   4.5891147319505E-10
(PID.TID 0000.0001) %MON dynstat_wvel_sd              =   3.0352563047976E-05
(PID.TID 0000.0001) %MON dynstat_wvel_del2            =   1.2007679980135E-07
(PID.TID 0000.0001) %MON dynstat_theta_max            =   1.2000000000000E+00
(PID.TID 0000.0001) %MON dynstat_theta_min            =  -1.0000000000000E+00
(PID.TID 0000.0001) %MON dynstat_theta_mean           =   5.6497458720436E-01
(PID.TID 0000.0001) %MON dynstat_theta_sd             =   8.4886957441817E-01
(PID.TID 0000.0001) %MON dynstat_theta_del2           =   4.3614408464757E-06
(PID.TID 0000.0001) %MON dynstat_salt_max             =   3.4700000000000E+01
(PID.TID 0000.0001) %MON dynstat_salt_min             =   3.4000000000000E+01
(PID.TID 0000.0001) %MON dynstat_salt_mean            =   3.4497903906263E+01
(PID.TID 0000.0001) %MON dynstat_salt_sd              =   2.7008627160015E-01
(PID.TID 0000.0001) %MON dynstat_salt_del2            =   1.7267699057181E-06
(PID.TID 0000.0001) %MON advcfl_uvel_max              =   4.6292347111566E-03
(PID.TID 0000.0001) %MON advcfl_vvel_max              =   2.9266139266876E-03
(PID.TID 0000.0001) %MON advcfl_wvel_max              =   1.1818903739687E-02
(PID.TID 0000.0001) %MON advcfl_W_hf_max              =   1.1818903739687E-02
(PID.TID 0000.0001) %MON pe_b_mean                    =  -6.8162024439832E-01
(PID.TID 0000.0001) %MON ke_max                       =   9.6545288957069E-04
(PID.TID 0000.0001) %MON ke_mean                      =   1.0249842838128E-06
(PID.TID 0000.0001) %MON ke_vol                       =   4.6183137975505E+12
(PID.TID 0000.0001) // =======================================================
(PID.TID 0000.0001) // End MONITOR dynamic field statistics
(PID.TID 0000.0001) // =======================================================
(PID.TID 0000.0001) // =======================================================
(PID.TID 0000.0001) // Begin OBCS MONITOR field statistics
(PID.TID 0000.0001) // =======================================================
(PID.TID 0000.0001) %MON obc_N_vVel_max               =   4.7514080463071E-08
(PID.TID 0000.0001) %MON obc_N_vVel_min               =   4.7514080463071E-08
(PID.TID 0000.0001) %MON obc_N_vVel_mean              =   4.7514080463071E-08
(PID.TID 0000.0001) %MON obc_N_vVel_sd                =   3.0767402982137E-15
(PID.TID 0000.0001) %MON obc_N_vVel_Int               =   3.1359293105627E+00
(PID.TID 0000.0001) // =======================================================
(PID.TID 0000.0001) // End OBCS MONITOR field statistics
(PID.TID 0000.0001) // =======================================================
 cg2d: Sum(rhs),rhsMax =   3.00717250922272E+00  4.53041077072096E+02
(PID.TID 0000.0001)      cg2d_init_res =   4.87919773504450E-06
(PID.TID 0000.0001)      cg2d_iters(min,last) =      -1      77
(PID.TID 0000.0001)      cg2d_last_res =   9.02564663493502E-12
(PID.TID 0000.0001) // =======================================================
(PID.TID 0000.0001) // Begin MONITOR dynamic field statistics
(PID.TID 0000.0001) // =======================================================
(PID.TID 0000.0001) %MON time_tsnumber                =                  1347
(PID.TID 0000.0001) %MON time_secondsf                =   1.3470000000000E+05
(PID.TID 0000.0001) %MON dynstat_eta_max              =   5.7992004067733E+00
(PID.TID 0000.0001) %MON dynstat_eta_min              =  -1.4168222415477E+01
(PID.TID 0000.0001) %MON dynstat_eta_mean             =  -2.5229123565183E+00
(PID.TID 0000.0001) %MON dynstat_eta_sd               =   4.9407437960943E+00
(PID.TID 0000.0001) %MON dynstat_eta_del2             =   1.9059117943137E-01
(PID.TID 0000.0001) %MON dynstat_uvel_max             =   1.0244910709724E-02
(PID.TID 0000.0001) %MON dynstat_uvel_min             =  -4.6388090908843E-02
(PID.TID 0000.0001) %MON dynstat_uvel_mean            =   3.5003159803478E-09
(PID.TID 0000.0001) %MON dynstat_uvel_sd              =   1.3178802273629E-03
(PID.TID 0000.0001) %MON dynstat_uvel_del2            =   2.0315705612840E-06
(PID.TID 0000.0001) %MON dynstat_vvel_max             =   2.9308511101446E-02
(PID.TID 0000.0001) %MON dynstat_vvel_min             =  -1.2983441226044E-02
(PID.TID 0000.0001) %MON dynstat_vvel_mean            =   1.0280405862625E-07
(PID.TID 0000.0001) %MON dynstat_vvel_sd              =   5.9582297317974E-04
(PID.TID 0000.0001) %MON dynstat_vvel_del2            =   1.5772727526504E-06
(PID.TID 0000.0001) %MON dynstat_wvel_max             =   1.8364275788449E-03
(PID.TID 0000.0001) %MON dynstat_wvel_min             =  -2.3685152189805E-03
(PID.TID 0000.0001) %MON dynstat_wvel_mean            =   4.5515208415902E-10
(PID.TID 0000.0001) %MON dynstat_wvel_sd              =   3.0413743215579E-05
(PID.TID 0000.0001) %MON dynstat_wvel_del2            =   1.2028143850265E-07
(PID.TID 0000.0001) %MON dynstat_theta_max            =   1.2000000000000E+00
(PID.TID 0000.0001) %MON dynstat_theta_min            =  -1.0000000000000E+00
(PID.TID 0000.0001) %MON dynstat_theta_mean           =   5.6497361881829E-01
(PID.TID 0000.0001) %MON dynstat_theta_sd             =   8.4886913505148E-01
(PID.TID 0000.0001) %MON dynstat_theta_del2           =   4.3693565610621E-06
(PID.TID 0000.0001) %MON dynstat_salt_max             =   3.4700000000000E+01
(PID.TID 0000.0001) %MON dynstat_salt_min             =   3.4000000000000E+01
(PID.TID 0000.0001) %MON dynstat_salt_mean            =   3.4497903519133E+01
(PID.TID 0000.0001) %MON dynstat_salt_sd              =   2.7008610583784E-01
(PID.TID 0000.0001) %MON dynstat_salt_del2            =   1.7299103517540E-06
(PID.TID 0000.0001) %MON advcfl_uvel_max              =   4.6388090908843E-03
(PID.TID 0000.0001) %MON advcfl_vvel_max              =   2.9308511101446E-03
(PID.TID 0000.0001) %MON advcfl_wvel_max              =   1.1842576094902E-02
(PID.TID 0000.0001) %MON advcfl_W_hf_max              =   1.1842576094902E-02
(PID.TID 0000.0001) %MON pe_b_mean                    =  -6.8161763696935E-01
(PID.TID 0000.0001) %MON ke_max                       =   9.6993579393269E-04
(PID.TID 0000.0001) %MON ke_mean                      =   1.0295768118298E-06
(PID.TID 0000.0001) %MON ke_vol                       =   4.6183138490535E+12
(PID.TID 0000.0001) // =======================================================
(PID.TID 0000.0001) // End MONITOR dynamic field statistics
(PID.TID 0000.0001) // =======================================================
(PID.TID 0000.0001) // =======================================================
(PID.TID 0000.0001) // Begin OBCS MONITOR field statistics
(PID.TID 0000.0001) // =======================================================
(PID.TID 0000.0001) %MON obc_N_vVel_max               =   5.4423994941910E-08
(PID.TID 0000.0001) %MON obc_N_vVel_min               =   5.4423994941909E-08
(PID.TID 0000.0001) %MON obc_N_vVel_mean              =   5.4423994941910E-08
(PID.TID 0000.0001) %MON obc_N_vVel_sd                =  -2.4849118514462E-29
(PID.TID 0000.0001) %MON obc_N_vVel_Int               =   3.5919836661661E+00
(PID.TID 0000.0001) // =======================================================
(PID.TID 0000.0001) // End OBCS MONITOR field statistics
(PID.TID 0000.0001) // =======================================================
 cg2d: Sum(rhs),rhsMax =   3.00716227586230E+00  4.53041058924179E+02
(PID.TID 0000.0001)      cg2d_init_res =   4.88717802726059E-06
(PID.TID 0000.0001)      cg2d_iters(min,last) =      -1      77
(PID.TID 0000.0001)      cg2d_last_res =   9.04379857157832E-12
(PID.TID 0000.0001) // =======================================================
(PID.TID 0000.0001) // Begin MONITOR dynamic field statistics
(PID.TID 0000.0001) // =======================================================
(PID.TID 0000.0001) %MON time_tsnumber                =                  1348
(PID.TID 0000.0001) %MON time_secondsf                =   1.3480000000000E+05
(PID.TID 0000.0001) %MON dynstat_eta_max              =   5.7992032236800E+00
(PID.TID 0000.0001) %MON dynstat_eta_min              =  -1.4168203733601E+01
(PID.TID 0000.0001) %MON dynstat_eta_mean             =  -2.5229036700250E+00
(PID.TID 0000.0001) %MON dynstat_eta_sd               =   4.9407413106628E+00
(PID.TID 0000.0001) %MON dynstat_eta_del2             =   1.9059120598357E-01
(PID.TID 0000.0001) %MON dynstat_uvel_max             =   1.0266948209761E-02
(PID.TID 0000.0001) %MON dynstat_uvel_min             =  -4.6483964611267E-02
(PID.TID 0000.0001) %MON dynstat_uvel_mean            =   3.5381737858021E-09
(PID.TID 0000.0001) %MON dynstat_uvel_sd              =   1.3209010167713E-03
(PID.TID 0000.0001) %MON dynstat_uvel_del2            =   2.0363703934447E-06
(PID.TID 0000.0001) %MON dynstat_vvel_max             =   2.9350893280826E-02
(PID.TID 0000.0001) %MON dynstat_vvel_min             =  -1.3019970573092E-02
(PID.TID 0000.0001) %MON dynstat_vvel_mean            =   1.0923694120276E-07
(PID.TID 0000.0001) %MON dynstat_vvel_sd              =   5.9699815674709E-04
(PID.TID 0000.0001) %MON dynstat_vvel_del2            =   1.5802058136860E-06
(PID.TID 0000.0001) %MON dynstat_wvel_max             =   1.8398146334446E-03
(PID.TID 0000.0001) %MON dynstat_wvel_min             =  -2.3732461784225E-03
(PID.TID 0000.0001) %MON dynstat_wvel_mean            =   4.5059617301106E-10
(PID.TID 0000.0001) %MON dynstat_wvel_sd              =   3.0474653309329E-05
(PID.TID 0000.0001) %MON dynstat_wvel_del2            =   1.2048265052751E-07
(PID.TID 0000.0001) %MON dynstat_theta_max            =   1.2000000000000E+00
(PID.TID 0000.0001) %MON dynstat_theta_min            =  -1.0000000000000E+00
(PID.TID 0000.0001) %MON dynstat_theta_mean           =   5.6497264871028E-01
(PID.TID 0000.0001) %MON dynstat_theta_sd             =   8.4886869493910E-01
(PID.TID 0000.0001) %MON dynstat_theta_del2           =   4.3772817311795E-06
(PID.TID 0000.0001) %MON dynstat_salt_max             =   3.4700000000000E+01
(PID.TID 0000.0001) %MON dynstat_salt_min             =   3.4000000000000E+01
(PID.TID 0000.0001) %MON dynstat_salt_mean            =   3.4497903131314E+01
(PID.TID 0000.0001) %MON dynstat_salt_sd              =   2.7008593979839E-01
(PID.TID 0000.0001) %MON dynstat_salt_del2            =   1.7330546817357E-06
(PID.TID 0000.0001) %MON advcfl_uvel_max              =   4.6483964611267E-03
(PID.TID 0000.0001) %MON advcfl_vvel_max              =   2.9350893280826E-03
(PID.TID 0000.0001) %MON advcfl_wvel_max              =   1.1866230892112E-02
(PID.TID 0000.0001) %MON advcfl_W_hf_max              =   1.1866230892112E-02
(PID.TID 0000.0001) %MON pe_b_mean                    =  -6.8161502615763E-01
(PID.TID 0000.0001) %MON ke_max                       =   9.7443605191264E-04
(PID.TID 0000.0001) %MON ke_mean                      =   1.0341883626143E-06
(PID.TID 0000.0001) %MON ke_vol                       =   4.6183139006023E+12
(PID.TID 0000.0001) // =======================================================
(PID.TID 0000.0001) // End MONITOR dynamic field statistics
(PID.TID 0000.0001) // =======================================================
(PID.TID 0000.0001) // =======================================================
(PID.TID 0000.0001) // Begin OBCS MONITOR field statistics
(PID.TID 0000.0001) // =======================================================
(PID.TID 0000.0001) %MON obc_N_vVel_max               =   6.0884999575697E-08
(PID.TID 0000.0001) %MON obc_N_vVel_min               =   6.0884999575695E-08
(PID.TID 0000.0001) %MON obc_N_vVel_mean              =   6.0884999575695E-08
(PID.TID 0000.0001) %MON obc_N_vVel_sd                =   8.4260003245841E-15
(PID.TID 0000.0001) %MON obc_N_vVel_Int               =   4.0184099719959E+00
(PID.TID 0000.0001) // =======================================================
(PID.TID 0000.0001) // End OBCS MONITOR field statistics
(PID.TID 0000.0001) // =======================================================
 cg2d: Sum(rhs),rhsMax =   3.00715203161284E+00  4.53041040818904E+02
(PID.TID 0000.0001)      cg2d_init_res =   4.89520688580911E-06
(PID.TID 0000.0001)      cg2d_iters(min,last) =      -1      77
(PID.TID 0000.0001)      cg2d_last_res =   9.06203713172904E-12
(PID.TID 0000.0001) // =======================================================
(PID.TID 0000.0001) // Begin MONITOR dynamic field statistics
(PID.TID 0000.0001) // =======================================================
(PID.TID 0000.0001) %MON time_tsnumber                =                  1349
(PID.TID 0000.0001) %MON time_secondsf                =   1.3490000000000E+05
(PID.TID 0000.0001) %MON dynstat_eta_max              =   5.7992060337401E+00
(PID.TID 0000.0001) %MON dynstat_eta_min              =  -1.4168185023360E+01
(PID.TID 0000.0001) %MON dynstat_eta_mean             =  -2.5228949746344E+00
(PID.TID 0000.0001) %MON dynstat_eta_sd               =   4.9407388224496E+00
(PID.TID 0000.0001) %MON dynstat_eta_del2             =   1.9059123258643E-01
(PID.TID 0000.0001) %MON dynstat_uvel_max             =   1.0289006957155E-02
(PID.TID 0000.0001) %MON dynstat_uvel_min             =  -4.6579968479874E-02
(PID.TID 0000.0001) %MON dynstat_uvel_mean            =   3.5810616089163E-09
(PID.TID 0000.0001) %MON dynstat_uvel_sd              =   1.3239275585126E-03
(PID.TID 0000.0001) %MON dynstat_uvel_del2            =   2.0411803956115E-06
(PID.TID 0000.0001) %MON dynstat_vvel_max             =   2.9393285777044E-02
(PID.TID 0000.0001) %MON dynstat_vvel_min             =  -1.3056566853447E-02
(PID.TID 0000.0001) %MON dynstat_vvel_mean            =   1.1500367625584E-07
(PID.TID 0000.0001) %MON dynstat_vvel_sd              =   5.9817547265278E-04
(PID.TID 0000.0001) %MON dynstat_vvel_del2            =   1.5831411331049E-06
(PID.TID 0000.0001) %MON dynstat_wvel_max             =   1.8432043290921E-03
(PID.TID 0000.0001) %MON dynstat_wvel_min             =  -2.3779735187599E-03
(PID.TID 0000.0001) %MON dynstat_wvel_mean            =   4.4534821284928E-10
(PID.TID 0000.0001) %MON dynstat_wvel_sd              =   3.0535332564040E-05
(PID.TID 0000.0001) %MON dynstat_wvel_del2            =   1.2068074776018E-07
(PID.TID 0000.0001) %MON dynstat_theta_max            =   1.2000000000000E+00
(PID.TID 0000.0001) %MON dynstat_theta_min            =  -1.0000000000000E+00
(PID.TID 0000.0001) %MON dynstat_theta_mean           =   5.6497167687565E-01
(PID.TID 0000.0001) %MON dynstat_theta_sd             =   8.4886825408362E-01
(PID.TID 0000.0001) %MON dynstat_theta_del2           =   4.3852167181493E-06
(PID.TID 0000.0001) %MON dynstat_salt_max             =   3.4700000000000E+01
(PID.TID 0000.0001) %MON dynstat_salt_min             =   3.4000000000000E+01
(PID.TID 0000.0001) %MON dynstat_salt_mean            =   3.4497902742806E+01
(PID.TID 0000.0001) %MON dynstat_salt_sd              =   2.7008577348285E-01
(PID.TID 0000.0001) %MON dynstat_salt_del2            =   1.7362029870647E-06
(PID.TID 0000.0001) %MON advcfl_uvel_max              =   4.6579968479874E-03
(PID.TID 0000.0001) %MON advcfl_vvel_max              =   2.9393285777044E-03
(PID.TID 0000.0001) %MON advcfl_wvel_max              =   1.1889867593799E-02
(PID.TID 0000.0001) %MON advcfl_W_hf_max              =   1.1889867593799E-02
(PID.TID 0000.0001) %MON pe_b_mean                    =  -6.8161241180601E-01
(PID.TID 0000.0001) %MON ke_max                       =   9.7895371595736E-04
(PID.TID 0000.0001) %MON ke_mean                      =   1.0388189959797E-06
(PID.TID 0000.0001) %MON ke_vol                       =   4.6183139522001E+12
(PID.TID 0000.0001) // =======================================================
(PID.TID 0000.0001) // End MONITOR dynamic field statistics
(PID.TID 0000.0001) // =======================================================
(PID.TID 0000.0001) // =======================================================
(PID.TID 0000.0001) // Begin OBCS MONITOR field statistics
(PID.TID 0000.0001) // =======================================================
(PID.TID 0000.0001) %MON obc_N_vVel_max               =   6.6781505783218E-08
(PID.TID 0000.0001) %MON obc_N_vVel_min               =   6.6781505783218E-08
(PID.TID 0000.0001) %MON obc_N_vVel_mean              =   6.6781505783218E-08
(PID.TID 0000.0001) %MON obc_N_vVel_sd                =  -2.3665827156630E-28
(PID.TID 0000.0001) %MON obc_N_vVel_Int               =   4.4075793816924E+00
(PID.TID 0000.0001) // =======================================================
(PID.TID 0000.0001) // End OBCS MONITOR field statistics
(PID.TID 0000.0001) // =======================================================
 cg2d: Sum(rhs),rhsMax =   3.00714177567884E+00  4.53041022737904E+02
(PID.TID 0000.0001)      cg2d_init_res =   4.90327926691933E-06
(PID.TID 0000.0001)      cg2d_iters(min,last) =      -1      77
(PID.TID 0000.0001)      cg2d_last_res =   9.08039191102329E-12
(PID.TID 0000.0001) // =======================================================
(PID.TID 0000.0001) // Begin MONITOR dynamic field statistics
(PID.TID 0000.0001) // =======================================================
(PID.TID 0000.0001) %MON time_tsnumber                =                  1350
(PID.TID 0000.0001) %MON time_secondsf                =   1.3500000000000E+05
(PID.TID 0000.0001) %MON dynstat_eta_max              =   5.7992088383456E+00
(PID.TID 0000.0001) %MON dynstat_eta_min              =  -1.4168166283009E+01
(PID.TID 0000.0001) %MON dynstat_eta_mean             =  -2.5228862695767E+00
(PID.TID 0000.0001) %MON dynstat_eta_sd               =   4.9407363311112E+00
(PID.TID 0000.0001) %MON dynstat_eta_del2             =   1.9059125923905E-01
(PID.TID 0000.0001) %MON dynstat_uvel_max             =   1.0311086754875E-02
(PID.TID 0000.0001) %MON dynstat_uvel_min             =  -4.6676102774210E-02
(PID.TID 0000.0001) %MON dynstat_uvel_mean            =   3.6284194301786E-09
(PID.TID 0000.0001) %MON dynstat_uvel_sd              =   1.3269598574523E-03
(PID.TID 0000.0001) %MON dynstat_uvel_del2            =   2.0460005849412E-06
(PID.TID 0000.0001) %MON dynstat_vvel_max             =   2.9435687432853E-02
(PID.TID 0000.0001) %MON dynstat_vvel_min             =  -1.3093230247602E-02
(PID.TID 0000.0001) %MON dynstat_vvel_mean            =   1.2000483786189E-07
(PID.TID 0000.0001) %MON dynstat_vvel_sd              =   5.9935491468514E-04
(PID.TID 0000.0001) %MON dynstat_vvel_del2            =   1.5860788560104E-06
(PID.TID 0000.0001) %MON dynstat_wvel_max             =   1.8465963212496E-03
(PID.TID 0000.0001) %MON dynstat_wvel_min             =  -2.3826971319552E-03
(PID.TID 0000.0001) %MON dynstat_wvel_mean            =   4.3952480795137E-10
(PID.TID 0000.0001) %MON dynstat_wvel_sd              =   3.0595851047716E-05
(PID.TID 0000.0001) %MON dynstat_wvel_del2            =   1.2087627335446E-07
(PID.TID 0000.0001) %MON dynstat_theta_max            =   1.2000000000000E+00
(PID.TID 0000.0001) %MON dynstat_theta_min            =  -1.0000000000000E+00
(PID.TID 0000.0001) %MON dynstat_theta_mean           =   5.6497070330972E-01
(PID.TID 0000.0001) %MON dynstat_theta_sd             =   8.4886781248737E-01
(PID.TID 0000.0001) %MON dynstat_theta_del2           =   4.3931614648128E-06
(PID.TID 0000.0001) %MON dynstat_salt_max             =   3.4700000000000E+01
(PID.TID 0000.0001) %MON dynstat_salt_min             =   3.4000000000000E+01
(PID.TID 0000.0001) %MON dynstat_salt_mean            =   3.4497902353605E+01
(PID.TID 0000.0001) %MON dynstat_salt_sd              =   2.7008560689192E-01
(PID.TID 0000.0001) %MON dynstat_salt_del2            =   1.7393551256894E-06
(PID.TID 0000.0001) %MON advcfl_uvel_max              =   4.6676102774210E-03
(PID.TID 0000.0001) %MON advcfl_vvel_max              =   2.9435687432853E-03
(PID.TID 0000.0001) %MON advcfl_wvel_max              =   1.1913485659776E-02
(PID.TID 0000.0001) %MON advcfl_W_hf_max              =   1.1913485659776E-02
(PID.TID 0000.0001) %MON pe_b_mean                    =  -6.8160979373703E-01
(PID.TID 0000.0001) %MON ke_max                       =   9.8348883863887E-04
(PID.TID 0000.0001) %MON ke_mean                      =   1.0434687732933E-06
(PID.TID 0000.0001) %MON ke_vol                       =   4.6183140038507E+12
(PID.TID 0000.0001) // =======================================================
(PID.TID 0000.0001) // End MONITOR dynamic field statistics
(PID.TID 0000.0001) // =======================================================
(PID.TID 0000.0001) // =======================================================
(PID.TID 0000.0001) // Begin OBCS MONITOR field statistics
(PID.TID 0000.0001) // =======================================================
(PID.TID 0000.0001) %MON obc_N_vVel_max               =   7.2009615524636E-08
(PID.TID 0000.0001) %MON obc_N_vVel_min               =   7.2009615524635E-08
(PID.TID 0000.0001) %MON obc_N_vVel_mean              =   7.2009615524635E-08
(PID.TID 0000.0001) %MON obc_N_vVel_sd                =   4.3511678576337E-15
(PID.TID 0000.0001) %MON obc_N_vVel_Int               =   4.7526346246259E+00
(PID.TID 0000.0001) // =======================================================
(PID.TID 0000.0001) // End OBCS MONITOR field statistics
(PID.TID 0000.0001) // =======================================================
 cg2d: Sum(rhs),rhsMax =   3.00713150714942E+00  4.53041004662278E+02
(PID.TID 0000.0001)      cg2d_init_res =   4.91140986621722E-06
(PID.TID 0000.0001)      cg2d_iters(min,last) =      -1      77
(PID.TID 0000.0001)      cg2d_last_res =   9.09891719367141E-12
(PID.TID 0000.0001) // =======================================================
(PID.TID 0000.0001) // Begin MONITOR dynamic field statistics
(PID.TID 0000.0001) // =======================================================
(PID.TID 0000.0001) %MON time_tsnumber                =                  1351
(PID.TID 0000.0001) %MON time_secondsf                =   1.3510000000000E+05
(PID.TID 0000.0001) %MON dynstat_eta_max              =   5.7992116390282E+00
(PID.TID 0000.0001) %MON dynstat_eta_min              =  -1.4168147510628E+01
(PID.TID 0000.0001) %MON dynstat_eta_mean             =  -2.5228775539825E+00
(PID.TID 0000.0001) %MON dynstat_eta_sd               =   4.9407338362846E+00
(PID.TID 0000.0001) %MON dynstat_eta_del2             =   1.9059128594058E-01
(PID.TID 0000.0001) %MON dynstat_uvel_max             =   1.0333187120787E-02
(PID.TID 0000.0001) %MON dynstat_uvel_min             =  -4.6772367752037E-02
(PID.TID 0000.0001) %MON dynstat_uvel_mean            =   3.6796119471820E-09
(PID.TID 0000.0001) %MON dynstat_uvel_sd              =   1.3299979183443E-03
(PID.TID 0000.0001) %MON dynstat_uvel_del2            =   2.0508309770240E-06
(PID.TID 0000.0001) %MON dynstat_vvel_max             =   2.9478097939420E-02
(PID.TID 0000.0001) %MON dynstat_vvel_min             =  -1.3129960928124E-02
(PID.TID 0000.0001) %MON dynstat_vvel_mean            =   1.2415646827617E-07
(PID.TID 0000.0001) %MON dynstat_vvel_sd              =   6.0053648179466E-04
(PID.TID 0000.0001) %MON dynstat_vvel_del2            =   1.5890191837757E-06
(PID.TID 0000.0001) %MON dynstat_wvel_max             =   1.8499905425331E-03
(PID.TID 0000.0001) %MON dynstat_wvel_min             =  -2.3874169094280E-03
(PID.TID 0000.0001) %MON dynstat_wvel_mean            =   4.3325457190939E-10
(PID.TID 0000.0001) %MON dynstat_wvel_sd              =   3.0656303311724E-05
(PID.TID 0000.0001) %MON dynstat_wvel_del2            =   1.2106995522275E-07
(PID.TID 0000.0001) %MON dynstat_theta_max            =   1.2000000000000E+00
(PID.TID 0000.0001) %MON dynstat_theta_min            =  -1.0000000000000E+00
(PID.TID 0000.0001) %MON dynstat_theta_mean           =   5.6496972800787E-01
(PID.TID 0000.0001) %MON dynstat_theta_sd             =   8.4886737015207E-01
(PID.TID 0000.0001) %MON dynstat_theta_del2           =   4.4011156414454E-06
(PID.TID 0000.0001) %MON dynstat_salt_max             =   3.4700000000000E+01
(PID.TID 0000.0001) %MON dynstat_salt_min             =   3.4000000000000E+01
(PID.TID 0000.0001) %MON dynstat_salt_mean            =   3.4497901963711E+01
(PID.TID 0000.0001) %MON dynstat_salt_sd              =   2.7008544002602E-01
(PID.TID 0000.0001) %MON dynstat_salt_del2            =   1.7425110590482E-06
(PID.TID 0000.0001) %MON advcfl_uvel_max              =   4.6772367752037E-03
(PID.TID 0000.0001) %MON advcfl_vvel_max              =   2.9478097939420E-03
(PID.TID 0000.0001) %MON advcfl_wvel_max              =   1.1937084547140E-02
(PID.TID 0000.0001) %MON advcfl_W_hf_max              =   1.1937084547140E-02
(PID.TID 0000.0001) %MON pe_b_mean                    =  -6.8160717175640E-01
(PID.TID 0000.0001) %MON ke_max                       =   9.8804147263460E-04
(PID.TID 0000.0001) %MON ke_mean                      =   1.0481377590175E-06
(PID.TID 0000.0001) %MON ke_vol                       =   4.6183140555587E+12
(PID.TID 0000.0001) // =======================================================
(PID.TID 0000.0001) // End MONITOR dynamic field statistics
(PID.TID 0000.0001) // =======================================================
(PID.TID 0000.0001) // =======================================================
(PID.TID 0000.0001) // Begin OBCS MONITOR field statistics
(PID.TID 0000.0001) // =======================================================
(PID.TID 0000.0001) %MON obc_N_vVel_max               =   7.6479048553612E-08
(PID.TID 0000.0001) %MON obc_N_vVel_min               =   7.6479048553611E-08
(PID.TID 0000.0001) %MON obc_N_vVel_mean              =   7.6479048553612E-08
(PID.TID 0000.0001) %MON obc_N_vVel_sd                =  -3.2106638842495E-28
(PID.TID 0000.0001) %MON obc_N_vVel_Int               =   5.0476172045384E+00
(PID.TID 0000.0001) // =======================================================
(PID.TID 0000.0001) // End OBCS MONITOR field statistics
(PID.TID 0000.0001) // =======================================================
 cg2d: Sum(rhs),rhsMax =   3.00712122501270E+00  4.53040986573344E+02
(PID.TID 0000.0001)      cg2d_init_res =   4.91960197550582E-06
(PID.TID 0000.0001)      cg2d_iters(min,last) =      -1      77
(PID.TID 0000.0001)      cg2d_last_res =   9.11759856892970E-12
(PID.TID 0000.0001) // =======================================================
(PID.TID 0000.0001) // Begin MONITOR dynamic field statistics
(PID.TID 0000.0001) // =======================================================
(PID.TID 0000.0001) %MON time_tsnumber                =                  1352
(PID.TID 0000.0001) %MON time_secondsf                =   1.3520000000000E+05
(PID.TID 0000.0001) %MON dynstat_eta_max              =   5.7992144374351E+00
(PID.TID 0000.0001) %MON dynstat_eta_min              =  -1.4168128704171E+01
(PID.TID 0000.0001) %MON dynstat_eta_mean             =  -2.5228688268989E+00
(PID.TID 0000.0001) %MON dynstat_eta_sd               =   4.9407313375945E+00
(PID.TID 0000.0001) %MON dynstat_eta_del2             =   1.9059131269017E-01
(PID.TID 0000.0001) %MON dynstat_uvel_max             =   1.0355307857949E-02
(PID.TID 0000.0001) %MON dynstat_uvel_min             =  -4.6868763668821E-02
(PID.TID 0000.0001) %MON dynstat_uvel_mean            =   3.7339314302816E-09
(PID.TID 0000.0001) %MON dynstat_uvel_sd              =   1.3330417458666E-03
(PID.TID 0000.0001) %MON dynstat_uvel_del2            =   2.0556715869778E-06
(PID.TID 0000.0001) %MON dynstat_vvel_max             =   2.9520517054937E-02
(PID.TID 0000.0001) %MON dynstat_vvel_min             =  -1.3166759065742E-02
(PID.TID 0000.0001) %MON dynstat_vvel_mean            =   1.2739156736715E-07
(PID.TID 0000.0001) %MON dynstat_vvel_sd              =   6.0172017509824E-04
(PID.TID 0000.0001) %MON dynstat_vvel_del2            =   1.5919623527720E-06
(PID.TID 0000.0001) %MON dynstat_wvel_max             =   1.8533869156027E-03
(PID.TID 0000.0001) %MON dynstat_wvel_min             =  -2.3921327424825E-03
(PID.TID 0000.0001) %MON dynstat_wvel_mean            =   4.2667224124496E-10
(PID.TID 0000.0001) %MON dynstat_wvel_sd              =   3.0716799231459E-05
(PID.TID 0000.0001) %MON dynstat_wvel_del2            =   1.2126264742142E-07
(PID.TID 0000.0001) %MON dynstat_theta_max            =   1.2000000000000E+00
(PID.TID 0000.0001) %MON dynstat_theta_min            =  -1.0000000000000E+00
(PID.TID 0000.0001) %MON dynstat_theta_mean           =   5.6496875096544E-01
(PID.TID 0000.0001) %MON dynstat_theta_sd             =   8.4886692707832E-01
(PID.TID 0000.0001) %MON dynstat_theta_del2           =   4.4090790751854E-06
(PID.TID 0000.0001) %MON dynstat_salt_max             =   3.4700000000000E+01
(PID.TID 0000.0001) %MON dynstat_salt_min             =   3.4000000000000E+01
(PID.TID 0000.0001) %MON dynstat_salt_mean            =   3.4497901573122E+01
(PID.TID 0000.0001) %MON dynstat_salt_sd              =   2.7008527288579E-01
(PID.TID 0000.0001) %MON dynstat_salt_del2            =   1.7456707528300E-06
(PID.TID 0000.0001) %MON advcfl_uvel_max              =   4.6868763668821E-03
(PID.TID 0000.0001) %MON advcfl_vvel_max              =   2.9520517054937E-03
(PID.TID 0000.0001) %MON advcfl_wvel_max              =   1.1960663712413E-02
(PID.TID 0000.0001) %MON advcfl_W_hf_max              =   1.1960663712413E-02
(PID.TID 0000.0001) %MON pe_b_mean                    =  -6.8160454565649E-01
(PID.TID 0000.0001) %MON ke_max                       =   9.9261167071568E-04
(PID.TID 0000.0001) %MON ke_mean                      =   1.0528260189851E-06
(PID.TID 0000.0001) %MON ke_vol                       =   4.6183141073293E+12
(PID.TID 0000.0001) // =======================================================
(PID.TID 0000.0001) // End MONITOR dynamic field statistics
(PID.TID 0000.0001) // =======================================================
(PID.TID 0000.0001) // =======================================================
(PID.TID 0000.0001) // Begin OBCS MONITOR field statistics
(PID.TID 0000.0001) // =======================================================
(PID.TID 0000.0001) %MON obc_N_vVel_max               =   8.0114776734079E-08
(PID.TID 0000.0001) %MON obc_N_vVel_min               =   8.0114776734078E-08
(PID.TID 0000.0001) %MON obc_N_vVel_mean              =   8.0114776734079E-08
(PID.TID 0000.0001) %MON obc_N_vVel_sd                =  -1.8143800820083E-29
(PID.TID 0000.0001) %MON obc_N_vVel_Int               =   5.2875752644492E+00
(PID.TID 0000.0001) // =======================================================
(PID.TID 0000.0001) // End OBCS MONITOR field statistics
(PID.TID 0000.0001) // =======================================================
 cg2d: Sum(rhs),rhsMax =   3.00711092818194E+00  4.53040968452062E+02
(PID.TID 0000.0001)      cg2d_init_res =   4.92786357417774E-06
(PID.TID 0000.0001)      cg2d_iters(min,last) =      -1      77
(PID.TID 0000.0001)      cg2d_last_res =   9.13645680579983E-12
(PID.TID 0000.0001) // =======================================================
(PID.TID 0000.0001) // Begin MONITOR dynamic field statistics
(PID.TID 0000.0001) // =======================================================
(PID.TID 0000.0001) %MON time_tsnumber                =                  1353
(PID.TID 0000.0001) %MON time_secondsf                =   1.3530000000000E+05
(PID.TID 0000.0001) %MON dynstat_eta_max              =   5.7992172352903E+00
(PID.TID 0000.0001) %MON dynstat_eta_min              =  -1.4168109861509E+01
(PID.TID 0000.0001) %MON dynstat_eta_mean             =  -2.5228600873080E+00
(PID.TID 0000.0001) %MON dynstat_eta_sd               =   4.9407288346600E+00
(PID.TID 0000.0001) %MON dynstat_eta_del2             =   1.9059133948701E-01
(PID.TID 0000.0001) %MON dynstat_uvel_max             =   1.0377448768738E-02
(PID.TID 0000.0001) %MON dynstat_uvel_min             =  -4.6965290777593E-02
(PID.TID 0000.0001) %MON dynstat_uvel_mean            =   3.7906138328044E-09
(PID.TID 0000.0001) %MON dynstat_uvel_sd              =   1.3360913445971E-03
(PID.TID 0000.0001) %MON dynstat_uvel_del2            =   2.0605224298271E-06
(PID.TID 0000.0001) %MON dynstat_vvel_max             =   2.9562944564572E-02
(PID.TID 0000.0001) %MON dynstat_vvel_min             =  -1.3203624827502E-02
(PID.TID 0000.0001) %MON dynstat_vvel_mean            =   1.2966128020391E-07
(PID.TID 0000.0001) %MON dynstat_vvel_sd              =   6.0290599618407E-04
(PID.TID 0000.0001) %MON dynstat_vvel_del2            =   1.5949086165507E-06
(PID.TID 0000.0001) %MON dynstat_wvel_max             =   1.8567853962296E-03
(PID.TID 0000.0001) %MON dynstat_wvel_min             =  -2.3968445218970E-03
(PID.TID 0000.0001) %MON dynstat_wvel_mean            =   4.1991788041005E-10
(PID.TID 0000.0001) %MON dynstat_wvel_sd              =   3.0777454271059E-05
(PID.TID 0000.0001) %MON dynstat_wvel_del2            =   1.2145526393721E-07
(PID.TID 0000.0001) %MON dynstat_theta_max            =   1.2000000000000E+00
(PID.TID 0000.0001) %MON dynstat_theta_min            =  -1.0000000000000E+00
(PID.TID 0000.0001) %MON dynstat_theta_mean           =   5.6496777217781E-01
(PID.TID 0000.0001) %MON dynstat_theta_sd             =   8.4886648326740E-01
(PID.TID 0000.0001) %MON dynstat_theta_del2           =   4.4170515960902E-06
(PID.TID 0000.0001) %MON dynstat_salt_max             =   3.4700000000000E+01
(PID.TID 0000.0001) %MON dynstat_salt_min             =   3.4000000000000E+01
(PID.TID 0000.0001) %MON dynstat_salt_mean            =   3.4497901181836E+01
(PID.TID 0000.0001) %MON dynstat_salt_sd              =   2.7008510547120E-01
(PID.TID 0000.0001) %MON dynstat_salt_del2            =   1.7488341791260E-06
(PID.TID 0000.0001) %MON advcfl_uvel_max              =   4.6965290777593E-03
(PID.TID 0000.0001) %MON advcfl_vvel_max              =   2.9562944564572E-03
(PID.TID 0000.0001) %MON advcfl_wvel_max              =   1.1984222609485E-02
(PID.TID 0000.0001) %MON advcfl_W_hf_max              =   1.1984222609485E-02
(PID.TID 0000.0001) %MON pe_b_mean                    =  -6.8160191522036E-01
(PID.TID 0000.0001) %MON ke_max                       =   9.9719948574157E-04
(PID.TID 0000.0001) %MON ke_mean                      =   1.0575336193580E-06
(PID.TID 0000.0001) %MON ke_vol                       =   4.6183141591682E+12
(PID.TID 0000.0001) // =======================================================
(PID.TID 0000.0001) // End MONITOR dynamic field statistics
(PID.TID 0000.0001) // =======================================================
(PID.TID 0000.0001) // =======================================================
(PID.TID 0000.0001) // Begin OBCS MONITOR field statistics
(PID.TID 0000.0001) // =======================================================
(PID.TID 0000.0001) %MON obc_N_vVel_max               =   8.2858379895123E-08
(PID.TID 0000.0001) %MON obc_N_vVel_min               =   8.2858379895121E-08
(PID.TID 0000.0001) %MON obc_N_vVel_mean              =   8.2858379895123E-08
(PID.TID 0000.0001) %MON obc_N_vVel_sd                =  -9.8607613152626E-29
(PID.TID 0000.0001) %MON obc_N_vVel_Int               =   5.4686530730781E+00
(PID.TID 0000.0001) // =======================================================
(PID.TID 0000.0001) // End OBCS MONITOR field statistics
(PID.TID 0000.0001) // =======================================================
 cg2d: Sum(rhs),rhsMax =   3.00710061550912E+00  4.53040950280514E+02
(PID.TID 0000.0001)      cg2d_init_res =   4.93620033226197E-06
(PID.TID 0000.0001)      cg2d_iters(min,last) =      -1      77
(PID.TID 0000.0001)      cg2d_last_res =   9.15549350142949E-12
(PID.TID 0000.0001) // =======================================================
(PID.TID 0000.0001) // Begin MONITOR dynamic field statistics
(PID.TID 0000.0001) // =======================================================
(PID.TID 0000.0001) %MON time_tsnumber                =                  1354
(PID.TID 0000.0001) %MON time_secondsf                =   1.3540000000000E+05
(PID.TID 0000.0001) %MON dynstat_eta_max              =   5.7992200343703E+00
(PID.TID 0000.0001) %MON dynstat_eta_min              =  -1.4168090980450E+01
(PID.TID 0000.0001) %MON dynstat_eta_mean             =  -2.5228513341470E+00
(PID.TID 0000.0001) %MON dynstat_eta_sd               =   4.9407263271020E+00
(PID.TID 0000.0001) %MON dynstat_eta_del2             =   1.9059136633031E-01
(PID.TID 0000.0001) %MON dynstat_uvel_max             =   1.0399609660107E-02
(PID.TID 0000.0001) %MON dynstat_uvel_min             =  -4.7061949329002E-02
(PID.TID 0000.0001) %MON dynstat_uvel_mean            =   3.8488549961982E-09
(PID.TID 0000.0001) %MON dynstat_uvel_sd              =   1.3391467189876E-03
(PID.TID 0000.0001) %MON dynstat_uvel_del2            =   2.0653835204097E-06
(PID.TID 0000.0001) %MON dynstat_vvel_max             =   2.9605380276623E-02
(PID.TID 0000.0001) %MON dynstat_vvel_min             =  -1.3240558375184E-02
(PID.TID 0000.0001) %MON dynstat_vvel_mean            =   1.3093572319875E-07
(PID.TID 0000.0001) %MON dynstat_vvel_sd              =   6.0409394535148E-04
(PID.TID 0000.0001) %MON dynstat_vvel_del2            =   1.5978582275861E-06
(PID.TID 0000.0001) %MON dynstat_wvel_max             =   1.8601859641276E-03
(PID.TID 0000.0001) %MON dynstat_wvel_min             =  -2.4015521359870E-03
(PID.TID 0000.0001) %MON dynstat_wvel_mean            =   4.1313419407092E-10
(PID.TID 0000.0001) %MON dynstat_wvel_sd              =   3.0838379319597E-05
(PID.TID 0000.0001) %MON dynstat_wvel_del2            =   1.2164870959558E-07
(PID.TID 0000.0001) %MON dynstat_theta_max            =   1.2000000000000E+00
(PID.TID 0000.0001) %MON dynstat_theta_min            =  -1.0000000000000E+00
(PID.TID 0000.0001) %MON dynstat_theta_mean           =   5.6496679164037E-01
(PID.TID 0000.0001) %MON dynstat_theta_sd             =   8.4886603871910E-01
(PID.TID 0000.0001) %MON dynstat_theta_del2           =   4.4250331491484E-06
(PID.TID 0000.0001) %MON dynstat_salt_max             =   3.4700000000000E+01
(PID.TID 0000.0001) %MON dynstat_salt_min             =   3.4000000000000E+01
(PID.TID 0000.0001) %MON dynstat_salt_mean            =   3.4497900789852E+01
(PID.TID 0000.0001) %MON dynstat_salt_sd              =   2.7008493778239E-01
(PID.TID 0000.0001) %MON dynstat_salt_del2            =   1.7520013225630E-06
(PID.TID 0000.0001) %MON advcfl_uvel_max              =   4.7061949329002E-03
(PID.TID 0000.0001) %MON advcfl_vvel_max              =   2.9605380276623E-03
(PID.TID 0000.0001) %MON advcfl_wvel_max              =   1.2007760679935E-02
(PID.TID 0000.0001) %MON advcfl_W_hf_max              =   1.2007760679935E-02
(PID.TID 0000.0001) %MON pe_b_mean                    =  -6.8159928022588E-01
(PID.TID 0000.0001) %MON ke_max                       =   1.0018049706640E-03
(PID.TID 0000.0001) %MON ke_mean                      =   1.0622606255324E-06
(PID.TID 0000.0001) %MON ke_vol                       =   4.6183142110814E+12
(PID.TID 0000.0001) // =======================================================
(PID.TID 0000.0001) // End MONITOR dynamic field statistics
(PID.TID 0000.0001) // =======================================================
(PID.TID 0000.0001) // =======================================================
(PID.TID 0000.0001) // Begin OBCS MONITOR field statistics
(PID.TID 0000.0001) // =======================================================
(PID.TID 0000.0001) %MON obc_N_vVel_max               =   8.4669049882816E-08
(PID.TID 0000.0001) %MON obc_N_vVel_min               =   8.4669049882813E-08
(PID.TID 0000.0001) %MON obc_N_vVel_mean              =   8.4669049882816E-08
(PID.TID 0000.0001) %MON obc_N_vVel_sd                =  -2.5085776786028E-28
(PID.TID 0000.0001) %MON obc_N_vVel_Int               =   5.5881572922659E+00
(PID.TID 0000.0001) // =======================================================
(PID.TID 0000.0001) // End OBCS MONITOR field statistics
(PID.TID 0000.0001) // =======================================================
 cg2d: Sum(rhs),rhsMax =   3.00709028580886E+00  4.53040932041920E+02
(PID.TID 0000.0001)      cg2d_init_res =   4.94461687024259E-06
(PID.TID 0000.0001)      cg2d_iters(min,last) =      -1      77
(PID.TID 0000.0001)      cg2d_last_res =   9.17471818963343E-12
(PID.TID 0000.0001) // =======================================================
(PID.TID 0000.0001) // Begin MONITOR dynamic field statistics
(PID.TID 0000.0001) // =======================================================
(PID.TID 0000.0001) %MON time_tsnumber                =                  1355
(PID.TID 0000.0001) %MON time_secondsf                =   1.3550000000000E+05
(PID.TID 0000.0001) %MON dynstat_eta_max              =   5.7992228364485E+00
(PID.TID 0000.0001) %MON dynstat_eta_min              =  -1.4168072058798E+01
(PID.TID 0000.0001) %MON dynstat_eta_mean             =  -2.5228425663279E+00
(PID.TID 0000.0001) %MON dynstat_eta_sd               =   4.9407238145505E+00
(PID.TID 0000.0001) %MON dynstat_eta_del2             =   1.9059139321935E-01
(PID.TID 0000.0001) %MON dynstat_uvel_max             =   1.0421790354115E-02
(PID.TID 0000.0001) %MON dynstat_uvel_min             =  -4.7158739571220E-02
(PID.TID 0000.0001) %MON dynstat_uvel_mean            =   3.9078264467396E-09
(PID.TID 0000.0001) %MON dynstat_uvel_sd              =   1.3422078733819E-03
(PID.TID 0000.0001) %MON dynstat_uvel_del2            =   2.0702548735818E-06
(PID.TID 0000.0001) %MON dynstat_vvel_max             =   2.9647824016912E-02
(PID.TID 0000.0001) %MON dynstat_vvel_min             =  -1.3277559865505E-02
(PID.TID 0000.0001) %MON dynstat_vvel_mean            =   1.3120443863643E-07
(PID.TID 0000.0001) %MON dynstat_vvel_sd              =   6.0528401977748E-04
(PID.TID 0000.0001) %MON dynstat_vvel_del2            =   1.6008114189692E-06
(PID.TID 0000.0001) %MON dynstat_wvel_max             =   1.8635886142266E-03
(PID.TID 0000.0001) %MON dynstat_wvel_min             =  -2.4062554682231E-03
(PID.TID 0000.0001) %MON dynstat_wvel_mean            =   4.0646343467187E-10
(PID.TID 0000.0001) %MON dynstat_wvel_sd              =   3.0899671018875E-05
(PID.TID 0000.0001) %MON dynstat_wvel_del2            =   1.2184381328690E-07
(PID.TID 0000.0001) %MON dynstat_theta_max            =   1.2000000000000E+00
(PID.TID 0000.0001) %MON dynstat_theta_min            =  -1.0000000000000E+00
(PID.TID 0000.0001) %MON dynstat_theta_mean           =   5.6496580934856E-01
(PID.TID 0000.0001) %MON dynstat_theta_sd             =   8.4886559343194E-01
(PID.TID 0000.0001) %MON dynstat_theta_del2           =   4.4330234312074E-06
(PID.TID 0000.0001) %MON dynstat_salt_max             =   3.4700000000000E+01
(PID.TID 0000.0001) %MON dynstat_salt_min             =   3.4000000000000E+01
(PID.TID 0000.0001) %MON dynstat_salt_mean            =   3.4497900397167E+01
(PID.TID 0000.0001) %MON dynstat_salt_sd              =   2.7008476981896E-01
(PID.TID 0000.0001) %MON dynstat_salt_del2            =   1.7551721270043E-06
(PID.TID 0000.0001) %MON advcfl_uvel_max              =   4.7158739571220E-03
(PID.TID 0000.0001) %MON advcfl_vvel_max              =   2.9647824016912E-03
(PID.TID 0000.0001) %MON advcfl_wvel_max              =   1.2031277341115E-02
(PID.TID 0000.0001) %MON advcfl_W_hf_max              =   1.2031277341115E-02
(PID.TID 0000.0001) %MON pe_b_mean                    =  -6.8159664044986E-01
(PID.TID 0000.0001) %MON ke_max                       =   1.0064281785257E-03
(PID.TID 0000.0001) %MON ke_mean                      =   1.0670071010447E-06
(PID.TID 0000.0001) %MON ke_vol                       =   4.6183142630752E+12
(PID.TID 0000.0001) // =======================================================
(PID.TID 0000.0001) // End MONITOR dynamic field statistics
(PID.TID 0000.0001) // =======================================================
(PID.TID 0000.0001) // =======================================================
(PID.TID 0000.0001) // Begin OBCS MONITOR field statistics
(PID.TID 0000.0001) // =======================================================
(PID.TID 0000.0001) %MON obc_N_vVel_max               =   8.5524278780376E-08
(PID.TID 0000.0001) %MON obc_N_vVel_min               =   8.5524278780375E-08
(PID.TID 0000.0001) %MON obc_N_vVel_mean              =   8.5524278780375E-08
(PID.TID 0000.0001) %MON obc_N_vVel_sd                =   1.8071757378891E-14
(PID.TID 0000.0001) %MON obc_N_vVel_Int               =   5.6446023995048E+00
(PID.TID 0000.0001) // =======================================================
(PID.TID 0000.0001) // End OBCS MONITOR field statistics
(PID.TID 0000.0001) // =======================================================
 cg2d: Sum(rhs),rhsMax =   3.00707993788003E+00  4.53040913720970E+02
(PID.TID 0000.0001)      cg2d_init_res =   4.95311659612809E-06
(PID.TID 0000.0001)      cg2d_iters(min,last) =      -1      77
(PID.TID 0000.0001)      cg2d_last_res =   9.19412654187147E-12
(PID.TID 0000.0001) // =======================================================
(PID.TID 0000.0001) // Begin MONITOR dynamic field statistics
(PID.TID 0000.0001) // =======================================================
(PID.TID 0000.0001) %MON time_tsnumber                =                  1356
(PID.TID 0000.0001) %MON time_secondsf                =   1.3560000000000E+05
(PID.TID 0000.0001) %MON dynstat_eta_max              =   5.7992256432958E+00
(PID.TID 0000.0001) %MON dynstat_eta_min              =  -1.4168053094374E+01
(PID.TID 0000.0001) %MON dynstat_eta_mean             =  -2.5228337827577E+00
(PID.TID 0000.0001) %MON dynstat_eta_sd               =   4.9407212966493E+00
(PID.TID 0000.0001) %MON dynstat_eta_del2             =   1.9059142015340E-01
(PID.TID 0000.0001) %MON dynstat_uvel_max             =   1.0443990672791E-02
(PID.TID 0000.0001) %MON dynstat_uvel_min             =  -4.7255661749560E-02
(PID.TID 0000.0001) %MON dynstat_uvel_mean            =   3.9666926175258E-09
(PID.TID 0000.0001) %MON dynstat_uvel_sd              =   1.3452748119965E-03
(PID.TID 0000.0001) %MON dynstat_uvel_del2            =   2.0751365041090E-06
(PID.TID 0000.0001) %MON dynstat_vvel_max             =   2.9690275625375E-02
(PID.TID 0000.0001) %MON dynstat_vvel_min             =  -1.3314629450052E-02
(PID.TID 0000.0001) %MON dynstat_vvel_mean            =   1.3047646275902E-07
(PID.TID 0000.0001) %MON dynstat_vvel_sd              =   6.0647621252441E-04
(PID.TID 0000.0001) %MON dynstat_vvel_del2            =   1.6037683925205E-06
(PID.TID 0000.0001) %MON dynstat_wvel_max             =   1.8669933513548E-03
(PID.TID 0000.0001) %MON dynstat_wvel_min             =  -2.4109544012482E-03
(PID.TID 0000.0001) %MON dynstat_wvel_mean            =   4.0004469735651E-10
(PID.TID 0000.0001) %MON dynstat_wvel_sd              =   3.0961403318804E-05
(PID.TID 0000.0001) %MON dynstat_wvel_del2            =   1.2204126877255E-07
(PID.TID 0000.0001) %MON dynstat_theta_max            =   1.2000000000000E+00
(PID.TID 0000.0001) %MON dynstat_theta_min            =  -1.0000000000000E+00
(PID.TID 0000.0001) %MON dynstat_theta_mean           =   5.6496482529779E-01
(PID.TID 0000.0001) %MON dynstat_theta_sd             =   8.4886514740513E-01
(PID.TID 0000.0001) %MON dynstat_theta_del2           =   4.4410223170501E-06
(PID.TID 0000.0001) %MON dynstat_salt_max             =   3.4700000000000E+01
(PID.TID 0000.0001) %MON dynstat_salt_min             =   3.4000000000000E+01
(PID.TID 0000.0001) %MON dynstat_salt_mean            =   3.4497900003780E+01
(PID.TID 0000.0001) %MON dynstat_salt_sd              =   2.7008460158105E-01
(PID.TID 0000.0001) %MON dynstat_salt_del2            =   1.7583465745915E-06
(PID.TID 0000.0001) %MON advcfl_uvel_max              =   4.7255661749560E-03
(PID.TID 0000.0001) %MON advcfl_vvel_max              =   2.9690275625375E-03
(PID.TID 0000.0001) %MON advcfl_wvel_max              =   1.2054772006241E-02
(PID.TID 0000.0001) %MON advcfl_W_hf_max              =   1.2054772006241E-02
(PID.TID 0000.0001) %MON pe_b_mean                    =  -6.8159399567202E-01
(PID.TID 0000.0001) %MON ke_max                       =   1.0110691624476E-03
(PID.TID 0000.0001) %MON ke_mean                      =   1.0717731069236E-06
(PID.TID 0000.0001) %MON ke_vol                       =   4.6183143151560E+12
(PID.TID 0000.0001) // =======================================================
(PID.TID 0000.0001) // End MONITOR dynamic field statistics
(PID.TID 0000.0001) // =======================================================
(PID.TID 0000.0001) // =======================================================
(PID.TID 0000.0001) // Begin OBCS MONITOR field statistics
(PID.TID 0000.0001) // =======================================================
(PID.TID 0000.0001) %MON obc_N_vVel_max               =   8.5420158041421E-08
(PID.TID 0000.0001) %MON obc_N_vVel_min               =   8.5420158041419E-08
(PID.TID 0000.0001) %MON obc_N_vVel_mean              =   8.5420158041421E-08
(PID.TID 0000.0001) %MON obc_N_vVel_sd                =  -4.5438388140730E-28
(PID.TID 0000.0001) %MON obc_N_vVel_Int               =   5.6377304307338E+00
(PID.TID 0000.0001) // =======================================================
(PID.TID 0000.0001) // End OBCS MONITOR field statistics
(PID.TID 0000.0001) // =======================================================
 cg2d: Sum(rhs),rhsMax =   3.00706957052680E+00  4.53040895304227E+02
(PID.TID 0000.0001)      cg2d_init_res =   4.96170752738949E-06
(PID.TID 0000.0001)      cg2d_iters(min,last) =      -1      77
(PID.TID 0000.0001)      cg2d_last_res =   9.21415075180012E-12
(PID.TID 0000.0001) // =======================================================
(PID.TID 0000.0001) // Begin MONITOR dynamic field statistics
(PID.TID 0000.0001) // =======================================================
(PID.TID 0000.0001) %MON time_tsnumber                =                  1357
(PID.TID 0000.0001) %MON time_secondsf                =   1.3570000000000E+05
(PID.TID 0000.0001) %MON dynstat_eta_max              =   5.7992284566188E+00
(PID.TID 0000.0001) %MON dynstat_eta_min              =  -1.4168034085069E+01
(PID.TID 0000.0001) %MON dynstat_eta_mean             =  -2.5228249823584E+00
(PID.TID 0000.0001) %MON dynstat_eta_sd               =   4.9407187730741E+00
(PID.TID 0000.0001) %MON dynstat_eta_del2             =   1.9059144713292E-01
(PID.TID 0000.0001) %MON dynstat_uvel_max             =   1.0466210436221E-02
(PID.TID 0000.0001) %MON dynstat_uvel_min             =  -4.7352716101118E-02
(PID.TID 0000.0001) %MON dynstat_uvel_mean            =   4.0246673316766E-09
(PID.TID 0000.0001) %MON dynstat_uvel_sd              =   1.3483475389158E-03
(PID.TID 0000.0001) %MON dynstat_uvel_del2            =   2.0800284317787E-06
(PID.TID 0000.0001) %MON dynstat_vvel_max             =   2.9732734954331E-02
(PID.TID 0000.0001) %MON dynstat_vvel_min             =  -1.3351767275930E-02
(PID.TID 0000.0001) %MON dynstat_vvel_mean            =   1.2878002023181E-07
(PID.TID 0000.0001) %MON dynstat_vvel_sd              =   6.0767051120471E-04
(PID.TID 0000.0001) %MON dynstat_vvel_del2            =   1.6067293020475E-06
(PID.TID 0000.0001) %MON dynstat_wvel_max             =   1.8704001867429E-03
(PID.TID 0000.0001) %MON dynstat_wvel_min             =  -2.4156488171275E-03
(PID.TID 0000.0001) %MON dynstat_wvel_mean            =   3.9401003227041E-10
(PID.TID 0000.0001) %MON dynstat_wvel_sd              =   3.1023620826778E-05
(PID.TID 0000.0001) %MON dynstat_wvel_del2            =   1.2224158598593E-07
(PID.TID 0000.0001) %MON dynstat_theta_max            =   1.2000000000000E+00
(PID.TID 0000.0001) %MON dynstat_theta_min            =  -1.0000000000000E+00
(PID.TID 0000.0001) %MON dynstat_theta_mean           =   5.6496383948335E-01
(PID.TID 0000.0001) %MON dynstat_theta_sd             =   8.4886470063765E-01
(PID.TID 0000.0001) %MON dynstat_theta_del2           =   4.4490291009767E-06
(PID.TID 0000.0001) %MON dynstat_salt_max             =   3.4700000000000E+01
(PID.TID 0000.0001) %MON dynstat_salt_min             =   3.4000000000000E+01
(PID.TID 0000.0001) %MON dynstat_salt_mean            =   3.4497899609690E+01
(PID.TID 0000.0001) %MON dynstat_salt_sd              =   2.7008443306889E-01
(PID.TID 0000.0001) %MON dynstat_salt_del2            =   1.7615246557421E-06
(PID.TID 0000.0001) %MON advcfl_uvel_max              =   4.7352716101118E-03
(PID.TID 0000.0001) %MON advcfl_vvel_max              =   2.9732734954331E-03
(PID.TID 0000.0001) %MON advcfl_wvel_max              =   1.2078244085638E-02
(PID.TID 0000.0001) %MON advcfl_W_hf_max              =   1.2078244085638E-02
(PID.TID 0000.0001) %MON pe_b_mean                    =  -6.8159134567890E-01
(PID.TID 0000.0001) %MON ke_max                       =   1.0157279755621E-03
(PID.TID 0000.0001) %MON ke_mean                      =   1.0765587008466E-06
(PID.TID 0000.0001) %MON ke_vol                       =   4.6183143673304E+12
(PID.TID 0000.0001) // =======================================================
(PID.TID 0000.0001) // End MONITOR dynamic field statistics
(PID.TID 0000.0001) // =======================================================
(PID.TID 0000.0001) // =======================================================
(PID.TID 0000.0001) // Begin OBCS MONITOR field statistics
(PID.TID 0000.0001) // =======================================================
(PID.TID 0000.0001) %MON obc_N_vVel_max               =   8.4371334457454E-08
(PID.TID 0000.0001) %MON obc_N_vVel_min               =   8.4371334457452E-08
(PID.TID 0000.0001) %MON obc_N_vVel_mean              =   8.4371334457452E-08
(PID.TID 0000.0001) %MON obc_N_vVel_sd                =   2.2186689812992E-14
(PID.TID 0000.0001) %MON obc_N_vVel_Int               =   5.5685080741919E+00
(PID.TID 0000.0001) // =======================================================
(PID.TID 0000.0001) // End OBCS MONITOR field statistics
(PID.TID 0000.0001) // =======================================================
 cg2d: Sum(rhs),rhsMax =   3.00705918258377E+00  4.53040876780341E+02
(PID.TID 0000.0001)      cg2d_init_res =   4.97039860432415E-06
(PID.TID 0000.0001)      cg2d_iters(min,last) =      -1      77
(PID.TID 0000.0001)      cg2d_last_res =   9.23517942694846E-12
(PID.TID 0000.0001) // =======================================================
(PID.TID 0000.0001) // Begin MONITOR dynamic field statistics
(PID.TID 0000.0001) // =======================================================
(PID.TID 0000.0001) %MON time_tsnumber                =                  1358
(PID.TID 0000.0001) %MON time_secondsf                =   1.3580000000000E+05
(PID.TID 0000.0001) %MON dynstat_eta_max              =   5.7992312780392E+00
(PID.TID 0000.0001) %MON dynstat_eta_min              =  -1.4168015028885E+01
(PID.TID 0000.0001) %MON dynstat_eta_mean             =  -2.5228161640891E+00
(PID.TID 0000.0001) %MON dynstat_eta_sd               =   4.9407162435390E+00
(PID.TID 0000.0001) %MON dynstat_eta_del2             =   1.9059147415946E-01
(PID.TID 0000.0001) %MON dynstat_uvel_max             =   1.0488449462027E-02
(PID.TID 0000.0001) %MON dynstat_uvel_min             =  -4.7449902854416E-02
(PID.TID 0000.0001) %MON dynstat_uvel_mean            =   4.0810211318327E-09
(PID.TID 0000.0001) %MON dynstat_uvel_sd              =   1.3514260581152E-03
(PID.TID 0000.0001) %MON dynstat_uvel_del2            =   2.0849306857453E-06
(PID.TID 0000.0001) %MON dynstat_vvel_max             =   2.9775201869535E-02
(PID.TID 0000.0001) %MON dynstat_vvel_min             =  -1.3388973483993E-02
(PID.TID 0000.0001) %MON dynstat_vvel_mean            =   1.2616184246205E-07
(PID.TID 0000.0001) %MON dynstat_vvel_sd              =   6.0886689719563E-04
(PID.TID 0000.0001) %MON dynstat_vvel_del2            =   1.6096942422074E-06
(PID.TID 0000.0001) %MON dynstat_wvel_max             =   1.8738091344342E-03
(PID.TID 0000.0001) %MON dynstat_wvel_min             =  -2.4203385976309E-03
(PID.TID 0000.0001) %MON dynstat_wvel_mean            =   3.8848277041540E-10
(PID.TID 0000.0001) %MON dynstat_wvel_sd              =   3.1086334500495E-05
(PID.TID 0000.0001) %MON dynstat_wvel_del2            =   1.2244505724390E-07
(PID.TID 0000.0001) %MON dynstat_theta_max            =   1.2000000000000E+00
(PID.TID 0000.0001) %MON dynstat_theta_min            =  -1.0000000000000E+00
(PID.TID 0000.0001) %MON dynstat_theta_mean           =   5.6496285190071E-01
(PID.TID 0000.0001) %MON dynstat_theta_sd             =   8.4886425312886E-01
(PID.TID 0000.0001) %MON dynstat_theta_del2           =   4.4570444303458E-06
(PID.TID 0000.0001) %MON dynstat_salt_max             =   3.4700000000000E+01
(PID.TID 0000.0001) %MON dynstat_salt_min             =   3.4000000000000E+01
(PID.TID 0000.0001) %MON dynstat_salt_mean            =   3.4497899214894E+01
(PID.TID 0000.0001) %MON dynstat_salt_sd              =   2.7008426428119E-01
(PID.TID 0000.0001) %MON dynstat_salt_del2            =   1.7647061601426E-06
(PID.TID 0000.0001) %MON advcfl_uvel_max              =   4.7449902854416E-03
(PID.TID 0000.0001) %MON advcfl_vvel_max              =   2.9775201869535E-03
(PID.TID 0000.0001) %MON advcfl_wvel_max              =   1.2101692988155E-02
(PID.TID 0000.0001) %MON advcfl_W_hf_max              =   1.2101692988155E-02
(PID.TID 0000.0001) %MON pe_b_mean                    =  -6.8158869026827E-01
(PID.TID 0000.0001) %MON ke_max                       =   1.0204046710985E-03
(PID.TID 0000.0001) %MON ke_mean                      =   1.0813639366575E-06
(PID.TID 0000.0001) %MON ke_vol                       =   4.6183144196048E+12
(PID.TID 0000.0001) // =======================================================
(PID.TID 0000.0001) // End MONITOR dynamic field statistics
(PID.TID 0000.0001) // =======================================================
(PID.TID 0000.0001) // =======================================================
(PID.TID 0000.0001) // Begin OBCS MONITOR field statistics
(PID.TID 0000.0001) // =======================================================
(PID.TID 0000.0001) %MON obc_N_vVel_max               =   8.2410600490227E-08
(PID.TID 0000.0001) %MON obc_N_vVel_min               =   8.2410600490226E-08
(PID.TID 0000.0001) %MON obc_N_vVel_mean              =   8.2410600490227E-08
(PID.TID 0000.0001) %MON obc_N_vVel_sd                =   4.2595540635239E-15
(PID.TID 0000.0001) %MON obc_N_vVel_Int               =   5.4390996323550E+00
(PID.TID 0000.0001) // =======================================================
(PID.TID 0000.0001) // End OBCS MONITOR field statistics
(PID.TID 0000.0001) // =======================================================
 cg2d: Sum(rhs),rhsMax =   3.00704877293749E+00  4.53040858140275E+02
(PID.TID 0000.0001)      cg2d_init_res =   4.97913271067377E-06
(PID.TID 0000.0001)      cg2d_iters(min,last) =      -1      77
(PID.TID 0000.0001)      cg2d_last_res =   9.25513749024082E-12
(PID.TID 0000.0001) // =======================================================
(PID.TID 0000.0001) // Begin MONITOR dynamic field statistics
(PID.TID 0000.0001) // =======================================================
(PID.TID 0000.0001) %MON time_tsnumber                =                  1359
(PID.TID 0000.0001) %MON time_secondsf                =   1.3590000000000E+05
(PID.TID 0000.0001) %MON dynstat_eta_max              =   5.7992341090519E+00
(PID.TID 0000.0001) %MON dynstat_eta_min              =  -1.4167995923956E+01
(PID.TID 0000.0001) %MON dynstat_eta_mean             =  -2.5228073269653E+00
(PID.TID 0000.0001) %MON dynstat_eta_sd               =   4.9407137077406E+00
(PID.TID 0000.0001) %MON dynstat_eta_del2             =   1.9059150122920E-01
(PID.TID 0000.0001) %MON dynstat_uvel_max             =   1.0510707564680E-02
(PID.TID 0000.0001) %MON dynstat_uvel_min             =  -4.7547222279813E-02
(PID.TID 0000.0001) %MON dynstat_uvel_mean            =   4.1348696320386E-09
(PID.TID 0000.0001) %MON dynstat_uvel_sd              =   1.3545103734124E-03
(PID.TID 0000.0001) %MON dynstat_uvel_del2            =   2.0898432808601E-06
(PID.TID 0000.0001) %MON dynstat_vvel_max             =   2.9817676251038E-02
(PID.TID 0000.0001) %MON dynstat_vvel_min             =  -1.3426248203517E-02
(PID.TID 0000.0001) %MON dynstat_vvel_mean            =   1.2268625586755E-07
(PID.TID 0000.0001) %MON dynstat_vvel_sd              =   6.1006534705149E-04
(PID.TID 0000.0001) %MON dynstat_vvel_del2            =   1.6126632645349E-06
(PID.TID 0000.0001) %MON dynstat_wvel_max             =   1.8772202089125E-03
(PID.TID 0000.0001) %MON dynstat_wvel_min             =  -2.4250236244780E-03
(PID.TID 0000.0001) %MON dynstat_wvel_mean            =   3.8358405734736E-10
(PID.TID 0000.0001) %MON dynstat_wvel_sd              =   3.1149520093104E-05
(PID.TID 0000.0001) %MON dynstat_wvel_del2            =   1.2265174310499E-07
(PID.TID 0000.0001) %MON dynstat_theta_max            =   1.2000000000000E+00
(PID.TID 0000.0001) %MON dynstat_theta_min            =  -1.0000000000000E+00
(PID.TID 0000.0001) %MON dynstat_theta_mean           =   5.6496186254547E-01
(PID.TID 0000.0001) %MON dynstat_theta_sd             =   8.4886380487797E-01
(PID.TID 0000.0001) %MON dynstat_theta_del2           =   4.4650683751567E-06
(PID.TID 0000.0001) %MON dynstat_salt_max             =   3.4700000000000E+01
(PID.TID 0000.0001) %MON dynstat_salt_min             =   3.4000000000000E+01
(PID.TID 0000.0001) %MON dynstat_salt_mean            =   3.4497898819391E+01
(PID.TID 0000.0001) %MON dynstat_salt_sd              =   2.7008409521786E-01
(PID.TID 0000.0001) %MON dynstat_salt_del2            =   1.7678913235288E-06
(PID.TID 0000.0001) %MON advcfl_uvel_max              =   4.7547222279813E-03
(PID.TID 0000.0001) %MON advcfl_vvel_max              =   2.9817676251038E-03
(PID.TID 0000.0001) %MON advcfl_wvel_max              =   1.2125118122390E-02
(PID.TID 0000.0001) %MON advcfl_W_hf_max              =   1.2125118122390E-02
(PID.TID 0000.0001) %MON pe_b_mean                    =  -6.8158602925306E-01
(PID.TID 0000.0001) %MON ke_max                       =   1.0250993035350E-03
(PID.TID 0000.0001) %MON ke_mean                      =   1.0861888651230E-06
(PID.TID 0000.0001) %MON ke_vol                       =   4.6183144719853E+12
(PID.TID 0000.0001) // =======================================================
(PID.TID 0000.0001) // End MONITOR dynamic field statistics
(PID.TID 0000.0001) // =======================================================
(PID.TID 0000.0001) // =======================================================
(PID.TID 0000.0001) // Begin OBCS MONITOR field statistics
(PID.TID 0000.0001) // =======================================================
(PID.TID 0000.0001) %MON obc_N_vVel_max               =   7.9588146097403E-08
(PID.TID 0000.0001) %MON obc_N_vVel_min               =   7.9588146097402E-08
(PID.TID 0000.0001) %MON obc_N_vVel_mean              =   7.9588146097403E-08
(PID.TID 0000.0001) %MON obc_N_vVel_sd                =  -1.9484864358959E-28
(PID.TID 0000.0001) %MON obc_N_vVel_Int               =   5.2528176424286E+00
(PID.TID 0000.0001) // =======================================================
(PID.TID 0000.0001) // End OBCS MONITOR field statistics
(PID.TID 0000.0001) // =======================================================
 cg2d: Sum(rhs),rhsMax =   3.00703834054587E+00  4.53040839377542E+02
(PID.TID 0000.0001)      cg2d_init_res =   4.98793548973075E-06
(PID.TID 0000.0001)      cg2d_iters(min,last) =      -1      77
(PID.TID 0000.0001)      cg2d_last_res =   9.27530608655480E-12
(PID.TID 0000.0001) // =======================================================
(PID.TID 0000.0001) // Begin MONITOR dynamic field statistics
(PID.TID 0000.0001) // =======================================================
(PID.TID 0000.0001) %MON time_tsnumber                =                  1360
(PID.TID 0000.0001) %MON time_secondsf                =   1.3600000000000E+05
(PID.TID 0000.0001) %MON dynstat_eta_max              =   5.7992369510227E+00
(PID.TID 0000.0001) %MON dynstat_eta_min              =  -1.4167976768581E+01
(PID.TID 0000.0001) %MON dynstat_eta_mean             =  -2.5227984700766E+00
(PID.TID 0000.0001) %MON dynstat_eta_sd               =   4.9407111654473E+00
(PID.TID 0000.0001) %MON dynstat_eta_del2             =   1.9059152834191E-01
(PID.TID 0000.0001) %MON dynstat_uvel_max             =   1.0532984556864E-02
(PID.TID 0000.0001) %MON dynstat_uvel_min             =  -4.7644674604225E-02
(PID.TID 0000.0001) %MON dynstat_uvel_mean            =   4.1854566623952E-09
(PID.TID 0000.0001) %MON dynstat_uvel_sd              =   1.3576004884648E-03
(PID.TID 0000.0001) %MON dynstat_uvel_del2            =   2.0947662321877E-06
(PID.TID 0000.0001) %MON dynstat_vvel_max             =   2.9860157993002E-02
(PID.TID 0000.0001) %MON dynstat_vvel_min             =  -1.3463591568955E-02
(PID.TID 0000.0001) %MON dynstat_vvel_mean            =   1.1843362891983E-07
(PID.TID 0000.0001) %MON dynstat_vvel_sd              =   6.1126583057225E-04
(PID.TID 0000.0001) %MON dynstat_vvel_del2            =   1.6156363603421E-06
(PID.TID 0000.0001) %MON dynstat_wvel_max             =   1.8806334237450E-03
(PID.TID 0000.0001) %MON dynstat_wvel_min             =  -2.4297037782878E-03
(PID.TID 0000.0001) %MON dynstat_wvel_mean            =   3.7941225389872E-10
(PID.TID 0000.0001) %MON dynstat_wvel_sd              =   3.1213118827083E-05
(PID.TID 0000.0001) %MON dynstat_wvel_del2            =   1.2286146804032E-07
(PID.TID 0000.0001) %MON dynstat_theta_max            =   1.2000000000000E+00
(PID.TID 0000.0001) %MON dynstat_theta_min            =  -1.0000000000000E+00
(PID.TID 0000.0001) %MON dynstat_theta_mean           =   5.6496087141338E-01
(PID.TID 0000.0001) %MON dynstat_theta_sd             =   8.4886335588338E-01
(PID.TID 0000.0001) %MON dynstat_theta_del2           =   4.4731010721814E-06
(PID.TID 0000.0001) %MON dynstat_salt_max             =   3.4700000000000E+01
(PID.TID 0000.0001) %MON dynstat_salt_min             =   3.4000000000000E+01
(PID.TID 0000.0001) %MON dynstat_salt_mean            =   3.4497898423179E+01
(PID.TID 0000.0001) %MON dynstat_salt_sd              =   2.7008392587872E-01
(PID.TID 0000.0001) %MON dynstat_salt_del2            =   1.7710801817932E-06
(PID.TID 0000.0001) %MON advcfl_uvel_max              =   4.7644674604225E-03
(PID.TID 0000.0001) %MON advcfl_vvel_max              =   2.9860157993002E-03
(PID.TID 0000.0001) %MON advcfl_wvel_max              =   1.2148518891439E-02
(PID.TID 0000.0001) %MON advcfl_W_hf_max              =   1.2148518891439E-02
(PID.TID 0000.0001) %MON pe_b_mean                    =  -6.8158336246432E-01
(PID.TID 0000.0001) %MON ke_max                       =   1.0298119262126E-03
(PID.TID 0000.0001) %MON ke_mean                      =   1.0910335327168E-06
(PID.TID 0000.0001) %MON ke_vol                       =   4.6183145244778E+12
(PID.TID 0000.0001) // =======================================================
(PID.TID 0000.0001) // End MONITOR dynamic field statistics
(PID.TID 0000.0001) // =======================================================
(PID.TID 0000.0001) // =======================================================
(PID.TID 0000.0001) // Begin OBCS MONITOR field statistics
(PID.TID 0000.0001) // =======================================================
(PID.TID 0000.0001) %MON obc_N_vVel_max               =   7.5970448410620E-08
(PID.TID 0000.0001) %MON obc_N_vVel_min               =   7.5970448410620E-08
(PID.TID 0000.0001) %MON obc_N_vVel_mean              =   7.5970448410620E-08
(PID.TID 0000.0001) %MON obc_N_vVel_sd                =   1.3845331341962E-14
(PID.TID 0000.0001) %MON obc_N_vVel_Int               =   5.0140495951009E+00
(PID.TID 0000.0001) // =======================================================
(PID.TID 0000.0001) // End OBCS MONITOR field statistics
(PID.TID 0000.0001) // =======================================================
 cg2d: Sum(rhs),rhsMax =   3.00702788445599E+00  4.53040820488254E+02
(PID.TID 0000.0001)      cg2d_init_res =   4.99679361601756E-06
(PID.TID 0000.0001)      cg2d_iters(min,last) =      -1      77
(PID.TID 0000.0001)      cg2d_last_res =   9.29563850101638E-12
(PID.TID 0000.0001) // =======================================================
(PID.TID 0000.0001) // Begin MONITOR dynamic field statistics
(PID.TID 0000.0001) // =======================================================
(PID.TID 0000.0001) %MON time_tsnumber                =                  1361
(PID.TID 0000.0001) %MON time_secondsf                =   1.3610000000000E+05
(PID.TID 0000.0001) %MON dynstat_eta_max              =   5.7992398051367E+00
(PID.TID 0000.0001) %MON dynstat_eta_min              =  -1.4167957561267E+01
(PID.TID 0000.0001) %MON dynstat_eta_mean             =  -2.5227895926018E+00
(PID.TID 0000.0001) %MON dynstat_eta_sd               =   4.9407086164708E+00
(PID.TID 0000.0001) %MON dynstat_eta_del2             =   1.9059155549744E-01
(PID.TID 0000.0001) %MON dynstat_uvel_max             =   1.0555280250421E-02
(PID.TID 0000.0001) %MON dynstat_uvel_min             =  -4.7742260050590E-02
(PID.TID 0000.0001) %MON dynstat_uvel_mean            =   4.2321540827984E-09
(PID.TID 0000.0001) %MON dynstat_uvel_sd              =   1.3606964067687E-03
(PID.TID 0000.0001) %MON dynstat_uvel_del2            =   2.0996995546569E-06
(PID.TID 0000.0001) %MON dynstat_vvel_max             =   2.9902647003050E-02
(PID.TID 0000.0001) %MON dynstat_vvel_min             =  -1.3501003710367E-02
(PID.TID 0000.0001) %MON dynstat_vvel_mean            =   1.1349882051791E-07
(PID.TID 0000.0001) %MON dynstat_vvel_sd              =   6.1246831265332E-04
(PID.TID 0000.0001) %MON dynstat_vvel_del2            =   1.6186134688329E-06
(PID.TID 0000.0001) %MON dynstat_wvel_max             =   1.8840487908907E-03
(PID.TID 0000.0001) %MON dynstat_wvel_min             =  -2.4343789396601E-03
(PID.TID 0000.0001) %MON dynstat_wvel_mean            =   3.7605386811503E-10
(PID.TID 0000.0001) %MON dynstat_wvel_sd              =   3.1277041108706E-05
(PID.TID 0000.0001) %MON dynstat_wvel_del2            =   1.2307383981884E-07
(PID.TID 0000.0001) %MON dynstat_theta_max            =   1.2000000000000E+00
(PID.TID 0000.0001) %MON dynstat_theta_min            =  -1.0000000000000E+00
(PID.TID 0000.0001) %MON dynstat_theta_mean           =   5.6495987850016E-01
(PID.TID 0000.0001) %MON dynstat_theta_sd             =   8.4886290614391E-01
(PID.TID 0000.0001) %MON dynstat_theta_del2           =   4.4811427187880E-06
(PID.TID 0000.0001) %MON dynstat_salt_max             =   3.4700000000000E+01
(PID.TID 0000.0001) %MON dynstat_salt_min             =   3.4000000000000E+01
(PID.TID 0000.0001) %MON dynstat_salt_mean            =   3.4497898026257E+01
(PID.TID 0000.0001) %MON dynstat_salt_sd              =   2.7008375626338E-01
(PID.TID 0000.0001) %MON dynstat_salt_del2            =   1.7742727863854E-06
(PID.TID 0000.0001) %MON advcfl_uvel_max              =   4.7742260050590E-03
(PID.TID 0000.0001) %MON advcfl_vvel_max              =   2.9902647003050E-03
(PID.TID 0000.0001) %MON advcfl_wvel_max              =   1.2171894698301E-02
(PID.TID 0000.0001) %MON advcfl_W_hf_max              =   1.2171894698301E-02
(PID.TID 0000.0001) %MON pe_b_mean                    =  -6.8158068975413E-01
(PID.TID 0000.0001) %MON ke_max                       =   1.0345425923368E-03
(PID.TID 0000.0001) %MON ke_mean                      =   1.0958979827067E-06
(PID.TID 0000.0001) %MON ke_vol                       =   4.6183145770877E+12
(PID.TID 0000.0001) // =======================================================
(PID.TID 0000.0001) // End MONITOR dynamic field statistics
(PID.TID 0000.0001) // =======================================================
(PID.TID 0000.0001) // =======================================================
(PID.TID 0000.0001) // Begin OBCS MONITOR field statistics
(PID.TID 0000.0001) // =======================================================
(PID.TID 0000.0001) %MON obc_N_vVel_max               =   7.1638896327984E-08
(PID.TID 0000.0001) %MON obc_N_vVel_min               =   7.1638896327983E-08
(PID.TID 0000.0001) %MON obc_N_vVel_mean              =   7.1638896327983E-08
(PID.TID 0000.0001) %MON obc_N_vVel_sd                =   1.2623387138745E-14
(PID.TID 0000.0001) %MON obc_N_vVel_Int               =   4.7281671576469E+00
(PID.TID 0000.0001) // =======================================================
(PID.TID 0000.0001) // End OBCS MONITOR field statistics
(PID.TID 0000.0001) // =======================================================
 cg2d: Sum(rhs),rhsMax =   3.00701740382375E+00  4.53040801471159E+02
(PID.TID 0000.0001)      cg2d_init_res =   5.00569361194306E-06
(PID.TID 0000.0001)      cg2d_iters(min,last) =      -1      77
(PID.TID 0000.0001)      cg2d_last_res =   9.31613447400807E-12
(PID.TID 0000.0001) // =======================================================
(PID.TID 0000.0001) // Begin MONITOR dynamic field statistics
(PID.TID 0000.0001) // =======================================================
(PID.TID 0000.0001) %MON time_tsnumber                =                  1362
(PID.TID 0000.0001) %MON time_secondsf                =   1.3620000000000E+05
(PID.TID 0000.0001) %MON dynstat_eta_max              =   5.7992426723874E+00
(PID.TID 0000.0001) %MON dynstat_eta_min              =  -1.4167938300750E+01
(PID.TID 0000.0001) %MON dynstat_eta_mean             =  -2.5227806938260E+00
(PID.TID 0000.0001) %MON dynstat_eta_sd               =   4.9407060606667E+00
(PID.TID 0000.0001) %MON dynstat_eta_del2             =   1.9059158269574E-01
(PID.TID 0000.0001) %MON dynstat_uvel_max             =   1.0577594455106E-02
(PID.TID 0000.0001) %MON dynstat_uvel_min             =  -4.7839978843157E-02
(PID.TID 0000.0001) %MON dynstat_uvel_mean            =   4.2744163034338E-09
(PID.TID 0000.0001) %MON dynstat_uvel_sd              =   1.3637981316694E-03
(PID.TID 0000.0001) %MON dynstat_uvel_del2            =   2.1046432632453E-06
(PID.TID 0000.0001) %MON dynstat_vvel_max             =   2.9945143200944E-02
(PID.TID 0000.0001) %MON dynstat_vvel_min             =  -1.3538484750484E-02
(PID.TID 0000.0001) %MON dynstat_vvel_mean            =   1.0798923744880E-07
(PID.TID 0000.0001) %MON dynstat_vvel_sd              =   6.1367275457170E-04
(PID.TID 0000.0001) %MON dynstat_vvel_del2            =   1.6215944848180E-06
(PID.TID 0000.0001) %MON dynstat_wvel_max             =   1.8874663204662E-03
(PID.TID 0000.0001) %MON dynstat_wvel_min             =  -2.4390489890843E-03
(PID.TID 0000.0001) %MON dynstat_wvel_mean            =   3.7357940173973E-10
(PID.TID 0000.0001) %MON dynstat_wvel_sd              =   3.1341172290864E-05
(PID.TID 0000.0001) %MON dynstat_wvel_del2            =   1.2328828136841E-07
(PID.TID 0000.0001) %MON dynstat_theta_max            =   1.2000000000000E+00
(PID.TID 0000.0001) %MON dynstat_theta_min            =  -1.0000000000000E+00
(PID.TID 0000.0001) %MON dynstat_theta_mean           =   5.6495888380171E-01
(PID.TID 0000.0001) %MON dynstat_theta_sd             =   8.4886245565952E-01
(PID.TID 0000.0001) %MON dynstat_theta_del2           =   4.4891935515753E-06
(PID.TID 0000.0001) %MON dynstat_salt_max             =   3.4700000000000E+01
(PID.TID 0000.0001) %MON dynstat_salt_min             =   3.4000000000000E+01
(PID.TID 0000.0001) %MON dynstat_salt_mean            =   3.4497897628623E+01
(PID.TID 0000.0001) %MON dynstat_salt_sd              =   2.7008358637183E-01
(PID.TID 0000.0001) %MON dynstat_salt_del2            =   1.7774691975830E-06
(PID.TID 0000.0001) %MON advcfl_uvel_max              =   4.7839978843157E-03
(PID.TID 0000.0001) %MON advcfl_vvel_max              =   2.9945143200944E-03
(PID.TID 0000.0001) %MON advcfl_wvel_max              =   1.2195244945421E-02
(PID.TID 0000.0001) %MON advcfl_W_hf_max              =   1.2195244945421E-02
(PID.TID 0000.0001) %MON pe_b_mean                    =  -6.8157801099834E-01
(PID.TID 0000.0001) %MON ke_max                       =   1.0392913553504E-03
(PID.TID 0000.0001) %MON ke_mean                      =   1.1007822559238E-06
(PID.TID 0000.0001) %MON ke_vol                       =   4.6183146298199E+12
(PID.TID 0000.0001) // =======================================================
(PID.TID 0000.0001) // End MONITOR dynamic field statistics
(PID.TID 0000.0001) // =======================================================
(PID.TID 0000.0001) // =======================================================
(PID.TID 0000.0001) // Begin OBCS MONITOR field statistics
(PID.TID 0000.0001) // =======================================================
(PID.TID 0000.0001) %MON obc_N_vVel_max               =   6.6688119034240E-08
(PID.TID 0000.0001) %MON obc_N_vVel_min               =   6.6688119034239E-08
(PID.TID 0000.0001) %MON obc_N_vVel_mean              =   6.6688119034240E-08
(PID.TID 0000.0001) %MON obc_N_vVel_sd                =  -1.8932661725304E-29
(PID.TID 0000.0001) %MON obc_N_vVel_Int               =   4.4014158562598E+00
(PID.TID 0000.0001) // =======================================================
(PID.TID 0000.0001) // End OBCS MONITOR field statistics
(PID.TID 0000.0001) // =======================================================
 cg2d: Sum(rhs),rhsMax =   3.00700689792757E+00  4.53040782327663E+02
(PID.TID 0000.0001)      cg2d_init_res =   5.01461988054412E-06
(PID.TID 0000.0001)      cg2d_iters(min,last) =      -1      77
(PID.TID 0000.0001)      cg2d_last_res =   9.33677857178675E-12
(PID.TID 0000.0001) // =======================================================
(PID.TID 0000.0001) // Begin MONITOR dynamic field statistics
(PID.TID 0000.0001) // =======================================================
(PID.TID 0000.0001) %MON time_tsnumber                =                  1363
(PID.TID 0000.0001) %MON time_secondsf                =   1.3630000000000E+05
(PID.TID 0000.0001) %MON dynstat_eta_max              =   5.7992455535705E+00
(PID.TID 0000.0001) %MON dynstat_eta_min              =  -1.4167918986009E+01
(PID.TID 0000.0001) %MON dynstat_eta_mean             =  -2.5227717731515E+00
(PID.TID 0000.0001) %MON dynstat_eta_sd               =   4.9407034979375E+00
(PID.TID 0000.0001) %MON dynstat_eta_del2             =   1.9059160993675E-01
(PID.TID 0000.0001) %MON dynstat_uvel_max             =   1.0599926978104E-02
(PID.TID 0000.0001) %MON dynstat_uvel_min             =  -4.7937831204293E-02
(PID.TID 0000.0001) %MON dynstat_uvel_mean            =   4.3117805122220E-09
(PID.TID 0000.0001) %MON dynstat_uvel_sd              =   1.3669056663486E-03
(PID.TID 0000.0001) %MON dynstat_uvel_del2            =   2.1095973729622E-06
(PID.TID 0000.0001) %MON dynstat_vvel_max             =   2.9987646517284E-02
(PID.TID 0000.0001) %MON dynstat_vvel_min             =  -1.3576034807944E-02
(PID.TID 0000.0001) %MON dynstat_vvel_mean            =   1.0202265734049E-07
(PID.TID 0000.0001) %MON dynstat_vvel_sd              =   6.1487911565472E-04
(PID.TID 0000.0001) %MON dynstat_vvel_del2            =   1.6245792694025E-06
(PID.TID 0000.0001) %MON dynstat_wvel_max             =   1.8908860206902E-03
(PID.TID 0000.0001) %MON dynstat_wvel_min             =  -2.4437138065126E-03
(PID.TID 0000.0001) %MON dynstat_wvel_mean            =   3.7204219497360E-10
(PID.TID 0000.0001) %MON dynstat_wvel_sd              =   3.1405380263950E-05
(PID.TID 0000.0001) %MON dynstat_wvel_del2            =   1.2350407553404E-07
(PID.TID 0000.0001) %MON dynstat_theta_max            =   1.2000000000000E+00
(PID.TID 0000.0001) %MON dynstat_theta_min            =  -1.0000000000000E+00
(PID.TID 0000.0001) %MON dynstat_theta_mean           =   5.6495788731410E-01
(PID.TID 0000.0001) %MON dynstat_theta_sd             =   8.4886200442953E-01
(PID.TID 0000.0001) %MON dynstat_theta_del2           =   4.4972518028486E-06
(PID.TID 0000.0001) %MON dynstat_salt_max             =   3.4700000000000E+01
(PID.TID 0000.0001) %MON dynstat_salt_min             =   3.4000000000000E+01
(PID.TID 0000.0001) %MON dynstat_salt_mean            =   3.4497897230276E+01
(PID.TID 0000.0001) %MON dynstat_salt_sd              =   2.7008341620389E-01
(PID.TID 0000.0001) %MON dynstat_salt_del2            =   1.7806694841038E-06
(PID.TID 0000.0001) %MON advcfl_uvel_max              =   4.7937831204293E-03
(PID.TID 0000.0001) %MON advcfl_vvel_max              =   2.9987646517284E-03
(PID.TID 0000.0001) %MON advcfl_wvel_max              =   1.2218569032563E-02
(PID.TID 0000.0001) %MON advcfl_W_hf_max              =   1.2218569032563E-02
(PID.TID 0000.0001) %MON pe_b_mean                    =  -6.8157532609847E-01
(PID.TID 0000.0001) %MON ke_max                       =   1.0440582688412E-03
(PID.TID 0000.0001) %MON ke_mean                      =   1.1056863917456E-06
(PID.TID 0000.0001) %MON ke_vol                       =   4.6183146826787E+12
(PID.TID 0000.0001) // =======================================================
(PID.TID 0000.0001) // End MONITOR dynamic field statistics
(PID.TID 0000.0001) // =======================================================
(PID.TID 0000.0001) // =======================================================
(PID.TID 0000.0001) // Begin OBCS MONITOR field statistics
(PID.TID 0000.0001) // =======================================================
(PID.TID 0000.0001) %MON obc_N_vVel_max               =   6.1224032151883E-08
(PID.TID 0000.0001) %MON obc_N_vVel_min               =   6.1224032151881E-08
(PID.TID 0000.0001) %MON obc_N_vVel_mean              =   6.1224032151883E-08
(PID.TID 0000.0001) %MON obc_N_vVel_sd                =  -2.7846789954302E-28
(PID.TID 0000.0001) %MON obc_N_vVel_Int               =   4.0407861220243E+00
(PID.TID 0000.0001) // =======================================================
(PID.TID 0000.0001) // End OBCS MONITOR field statistics
(PID.TID 0000.0001) // =======================================================
 cg2d: Sum(rhs),rhsMax =   3.00699636618152E+00  4.53040763061742E+02
(PID.TID 0000.0001)      cg2d_init_res =   5.02357540643066E-06
(PID.TID 0000.0001)      cg2d_iters(min,last) =      -1      77
(PID.TID 0000.0001)      cg2d_last_res =   9.35754735776211E-12
(PID.TID 0000.0001) // =======================================================
(PID.TID 0000.0001) // Begin MONITOR dynamic field statistics
(PID.TID 0000.0001) // =======================================================
(PID.TID 0000.0001) %MON time_tsnumber                =                  1364
(PID.TID 0000.0001) %MON time_secondsf                =   1.3640000000000E+05
(PID.TID 0000.0001) %MON dynstat_eta_max              =   5.7992484492434E+00
(PID.TID 0000.0001) %MON dynstat_eta_min              =  -1.4167899616279E+01
(PID.TID 0000.0001) %MON dynstat_eta_mean             =  -2.5227628301088E+00
(PID.TID 0000.0001) %MON dynstat_eta_sd               =   4.9407009282355E+00
(PID.TID 0000.0001) %MON dynstat_eta_del2             =   1.9059163722062E-01
(PID.TID 0000.0001) %MON dynstat_uvel_max             =   1.0622277624260E-02
(PID.TID 0000.0001) %MON dynstat_uvel_min             =  -4.8035817352715E-02
(PID.TID 0000.0001) %MON dynstat_uvel_mean            =   4.3438766173215E-09
(PID.TID 0000.0001) %MON dynstat_uvel_sd              =   1.3700190138070E-03
(PID.TID 0000.0001) %MON dynstat_uvel_del2            =   2.1145618989485E-06
(PID.TID 0000.0001) %MON dynstat_vvel_max             =   3.0030156892226E-02
(PID.TID 0000.0001) %MON dynstat_vvel_min             =  -1.3613653998634E-02
(PID.TID 0000.0001) %MON dynstat_vvel_mean            =   9.5724875600305E-08
(PID.TID 0000.0001) %MON dynstat_vvel_sd              =   6.1608735507057E-04
(PID.TID 0000.0001) %MON dynstat_vvel_del2            =   1.6275676620599E-06
(PID.TID 0000.0001) %MON dynstat_wvel_max             =   1.8943078979415E-03
(PID.TID 0000.0001) %MON dynstat_wvel_min             =  -2.4483732714633E-03
(PID.TID 0000.0001) %MON dynstat_wvel_mean            =   3.7147677105530E-10
(PID.TID 0000.0001) %MON dynstat_wvel_sd              =   3.1469524235502E-05
(PID.TID 0000.0001) %MON dynstat_wvel_del2            =   1.2372041832785E-07
(PID.TID 0000.0001) %MON dynstat_theta_max            =   1.2000000000000E+00
(PID.TID 0000.0001) %MON dynstat_theta_min            =  -1.0000000000000E+00
(PID.TID 0000.0001) %MON dynstat_theta_mean           =   5.6495688903351E-01
(PID.TID 0000.0001) %MON dynstat_theta_sd             =   8.4886155245416E-01
(PID.TID 0000.0001) %MON dynstat_theta_del2           =   4.5053198062323E-06
(PID.TID 0000.0001) %MON dynstat_salt_max             =   3.4700000000000E+01
(PID.TID 0000.0001) %MON dynstat_salt_min             =   3.4000000000000E+01
(PID.TID 0000.0001) %MON dynstat_salt_mean            =   3.4497896831214E+01
(PID.TID 0000.0001) %MON dynstat_salt_sd              =   2.7008324576212E-01
(PID.TID 0000.0001) %MON dynstat_salt_del2            =   1.7838801531688E-06
(PID.TID 0000.0001) %MON advcfl_uvel_max              =   4.8035817352715E-03
(PID.TID 0000.0001) %MON advcfl_vvel_max              =   3.0030156892226E-03
(PID.TID 0000.0001) %MON advcfl_wvel_max              =   1.2241866357316E-02
(PID.TID 0000.0001) %MON advcfl_W_hf_max              =   1.2241866357316E-02
(PID.TID 0000.0001) %MON pe_b_mean                    =  -6.8157263498347E-01
(PID.TID 0000.0001) %MON ke_max                       =   1.0488433864606E-03
(PID.TID 0000.0001) %MON ke_mean                      =   1.1106104291610E-06
(PID.TID 0000.0001) %MON ke_vol                       =   4.6183147356675E+12
(PID.TID 0000.0001) // =======================================================
(PID.TID 0000.0001) // End MONITOR dynamic field statistics
(PID.TID 0000.0001) // =======================================================
(PID.TID 0000.0001) // =======================================================
(PID.TID 0000.0001) // Begin OBCS MONITOR field statistics
(PID.TID 0000.0001) // =======================================================
(PID.TID 0000.0001) %MON obc_N_vVel_max               =   5.5361756916217E-08
(PID.TID 0000.0001) %MON obc_N_vVel_min               =   5.5361756916217E-08
(PID.TID 0000.0001) %MON obc_N_vVel_mean              =   5.5361756916217E-08
(PID.TID 0000.0001) %MON obc_N_vVel_sd                =   1.1546319456102E-14
(PID.TID 0000.0001) %MON obc_N_vVel_Int               =   3.6538759564703E+00
(PID.TID 0000.0001) // =======================================================
(PID.TID 0000.0001) // End OBCS MONITOR field statistics
(PID.TID 0000.0001) // =======================================================
 cg2d: Sum(rhs),rhsMax =   3.00698580814561E+00  4.53040743679788E+02
(PID.TID 0000.0001)      cg2d_init_res =   5.03387905425703E-06
(PID.TID 0000.0001)      cg2d_iters(min,last) =      -1      77
(PID.TID 0000.0001)      cg2d_last_res =   9.37709363753085E-12
(PID.TID 0000.0001) // =======================================================
(PID.TID 0000.0001) // Begin MONITOR dynamic field statistics
(PID.TID 0000.0001) // =======================================================
(PID.TID 0000.0001) %MON time_tsnumber                =                  1365
(PID.TID 0000.0001) %MON time_secondsf                =   1.3650000000000E+05
(PID.TID 0000.0001) %MON dynstat_eta_max              =   5.7992513597432E+00
(PID.TID 0000.0001) %MON dynstat_eta_min              =  -1.4167880191071E+01
(PID.TID 0000.0001) %MON dynstat_eta_mean             =  -2.5227538643645E+00
(PID.TID 0000.0001) %MON dynstat_eta_sd               =   4.9406983516173E+00
(PID.TID 0000.0001) %MON dynstat_eta_del2             =   1.9059166454941E-01
(PID.TID 0000.0001) %MON dynstat_uvel_max             =   1.0644646186638E-02
(PID.TID 0000.0001) %MON dynstat_uvel_min             =  -4.8133935327361E-02
(PID.TID 0000.0001) %MON dynstat_uvel_mean            =   4.3708077484775E-09
(PID.TID 0000.0001) %MON dynstat_uvel_sd              =   1.3731381741358E-03
(PID.TID 0000.0001) %MON dynstat_uvel_del2            =   2.1195369240768E-06
(PID.TID 0000.0001) %MON dynstat_vvel_max             =   3.0072674274213E-02
(PID.TID 0000.0001) %MON dynstat_vvel_min             =  -1.3651342422056E-02
(PID.TID 0000.0001) %MON dynstat_vvel_mean            =   8.9226929286971E-08
(PID.TID 0000.0001) %MON dynstat_vvel_sd              =   6.1729743780573E-04
(PID.TID 0000.0001) %MON dynstat_vvel_del2            =   1.6305595402491E-06
(PID.TID 0000.0001) %MON dynstat_wvel_max             =   1.8977319568886E-03
(PID.TID 0000.0001) %MON dynstat_wvel_min             =  -2.4530272621065E-03
(PID.TID 0000.0001) %MON dynstat_wvel_mean            =   3.7188645650067E-10
(PID.TID 0000.0001) %MON dynstat_wvel_sd              =   3.1533464164342E-05
(PID.TID 0000.0001) %MON dynstat_wvel_del2            =   1.2393647735813E-07
(PID.TID 0000.0001) %MON dynstat_theta_max            =   1.2000000000000E+00
(PID.TID 0000.0001) %MON dynstat_theta_min            =  -1.0000000000000E+00
(PID.TID 0000.0001) %MON dynstat_theta_mean           =   5.6495588895633E-01
(PID.TID 0000.0001) %MON dynstat_theta_sd             =   8.4886109973356E-01
(PID.TID 0000.0001) %MON dynstat_theta_del2           =   4.5133978649910E-06
(PID.TID 0000.0001) %MON dynstat_salt_max             =   3.4700000000000E+01
(PID.TID 0000.0001) %MON dynstat_salt_min             =   3.4000000000000E+01
(PID.TID 0000.0001) %MON dynstat_salt_mean            =   3.4497896431436E+01
(PID.TID 0000.0001) %MON dynstat_salt_sd              =   2.7008307504446E-01
(PID.TID 0000.0001) %MON dynstat_salt_del2            =   1.7870951108192E-06
(PID.TID 0000.0001) %MON advcfl_uvel_max              =   4.8133935327361E-03
(PID.TID 0000.0001) %MON advcfl_vvel_max              =   3.0072674274213E-03
(PID.TID 0000.0001) %MON advcfl_wvel_max              =   1.2265136310532E-02
(PID.TID 0000.0001) %MON advcfl_W_hf_max              =   1.2265136310532E-02
(PID.TID 0000.0001) %MON pe_b_mean                    =  -6.8156993761047E-01
(PID.TID 0000.0001) %MON ke_max                       =   1.0536467634083E-03
(PID.TID 0000.0001) %MON ke_mean                      =   1.1155544067766E-06
(PID.TID 0000.0001) %MON ke_vol                       =   4.6183147887892E+12
(PID.TID 0000.0001) // =======================================================
(PID.TID 0000.0001) // End MONITOR dynamic field statistics
(PID.TID 0000.0001) // =======================================================
(PID.TID 0000.0001) // =======================================================
(PID.TID 0000.0001) // Begin OBCS MONITOR field statistics
(PID.TID 0000.0001) // =======================================================
(PID.TID 0000.0001) %MON obc_N_vVel_max               =   4.9223284876140E-08
(PID.TID 0000.0001) %MON obc_N_vVel_min               =   4.9223284876138E-08
(PID.TID 0000.0001) %MON obc_N_vVel_mean              =   4.9223284876140E-08
(PID.TID 0000.0001) %MON obc_N_vVel_sd                =  -6.1136720154628E-29
(PID.TID 0000.0001) %MON obc_N_vVel_Int               =   3.2487368018252E+00
(PID.TID 0000.0001) // =======================================================
(PID.TID 0000.0001) // End OBCS MONITOR field statistics
(PID.TID 0000.0001) // =======================================================
 cg2d: Sum(rhs),rhsMax =   3.00697522353202E+00  4.53040724190479E+02
(PID.TID 0000.0001)      cg2d_init_res =   5.04292157638125E-06
(PID.TID 0000.0001)      cg2d_iters(min,last) =      -1      77
(PID.TID 0000.0001)      cg2d_last_res =   9.39793857260904E-12
(PID.TID 0000.0001) // =======================================================
(PID.TID 0000.0001) // Begin MONITOR dynamic field statistics
(PID.TID 0000.0001) // =======================================================
(PID.TID 0000.0001) %MON time_tsnumber                =                  1366
(PID.TID 0000.0001) %MON time_secondsf                =   1.3660000000000E+05
(PID.TID 0000.0001) %MON dynstat_eta_max              =   5.7992542851546E+00
(PID.TID 0000.0001) %MON dynstat_eta_min              =  -1.4167860710167E+01
(PID.TID 0000.0001) %MON dynstat_eta_mean             =  -2.5227448757255E+00
(PID.TID 0000.0001) %MON dynstat_eta_sd               =   4.9406957680831E+00
(PID.TID 0000.0001) %MON dynstat_eta_del2             =   1.9059169192163E-01
(PID.TID 0000.0001) %MON dynstat_uvel_max             =   1.0667032455812E-02
(PID.TID 0000.0001) %MON dynstat_uvel_min             =  -4.8232186259236E-02
(PID.TID 0000.0001) %MON dynstat_uvel_mean            =   4.3920640973180E-09
(PID.TID 0000.0001) %MON dynstat_uvel_sd              =   1.3762631496023E-03
(PID.TID 0000.0001) %MON dynstat_uvel_del2            =   2.1245224726741E-06
(PID.TID 0000.0001) %MON dynstat_vvel_max             =   3.0115198618738E-02
(PID.TID 0000.0001) %MON dynstat_vvel_min             =  -1.3689100142988E-02
(PID.TID 0000.0001) %MON dynstat_vvel_mean            =   8.2663187404531E-08
(PID.TID 0000.0001) %MON dynstat_vvel_sd              =   6.1850932976200E-04
(PID.TID 0000.0001) %MON dynstat_vvel_del2            =   1.6335547488022E-06
(PID.TID 0000.0001) %MON dynstat_wvel_max             =   1.9011582005966E-03
(PID.TID 0000.0001) %MON dynstat_wvel_min             =  -2.4576756583607E-03
(PID.TID 0000.0001) %MON dynstat_wvel_mean            =   3.7328246467833E-10
(PID.TID 0000.0001) %MON dynstat_wvel_sd              =   3.1597070356252E-05
(PID.TID 0000.0001) %MON dynstat_wvel_del2            =   1.2415146392245E-07
(PID.TID 0000.0001) %MON dynstat_theta_max            =   1.2000000000000E+00
(PID.TID 0000.0001) %MON dynstat_theta_min            =  -1.0000000000000E+00
(PID.TID 0000.0001) %MON dynstat_theta_mean           =   5.6495488707908E-01
(PID.TID 0000.0001) %MON dynstat_theta_sd             =   8.4886064626867E-01
(PID.TID 0000.0001) %MON dynstat_theta_del2           =   4.5214864338648E-06
(PID.TID 0000.0001) %MON dynstat_salt_max             =   3.4700000000000E+01
(PID.TID 0000.0001) %MON dynstat_salt_min             =   3.4000000000000E+01
(PID.TID 0000.0001) %MON dynstat_salt_mean            =   3.4497896030940E+01
(PID.TID 0000.0001) %MON dynstat_salt_sd              =   2.7008290405104E-01
(PID.TID 0000.0001) %MON dynstat_salt_del2            =   1.7903141470996E-06
(PID.TID 0000.0001) %MON advcfl_uvel_max              =   4.8232186259236E-03
(PID.TID 0000.0001) %MON advcfl_vvel_max              =   3.0115198618738E-03
(PID.TID 0000.0001) %MON advcfl_wvel_max              =   1.2288378291804E-02
(PID.TID 0000.0001) %MON advcfl_W_hf_max              =   1.2288378291804E-02
(PID.TID 0000.0001) %MON pe_b_mean                    =  -6.8156723396570E-01
(PID.TID 0000.0001) %MON ke_max                       =   1.0584684789819E-03
(PID.TID 0000.0001) %MON ke_mean                      =   1.1205183666427E-06
(PID.TID 0000.0001) %MON ke_vol                       =   4.6183148420457E+12
(PID.TID 0000.0001) // =======================================================
(PID.TID 0000.0001) // End MONITOR dynamic field statistics
(PID.TID 0000.0001) // =======================================================
(PID.TID 0000.0001) // =======================================================
(PID.TID 0000.0001) // Begin OBCS MONITOR field statistics
(PID.TID 0000.0001) // =======================================================
(PID.TID 0000.0001) %MON obc_N_vVel_max               =   4.2935117710711E-08
(PID.TID 0000.0001) %MON obc_N_vVel_min               =   4.2935117710711E-08
(PID.TID 0000.0001) %MON obc_N_vVel_mean              =   4.2935117710711E-08
(PID.TID 0000.0001) %MON obc_N_vVel_sd                =   5.9248890523228E-15
(PID.TID 0000.0001) %MON obc_N_vVel_Int               =   2.8337177689069E+00
(PID.TID 0000.0001) // =======================================================
(PID.TID 0000.0001) // End OBCS MONITOR field statistics
(PID.TID 0000.0001) // =======================================================
 cg2d: Sum(rhs),rhsMax =   3.00696461220947E+00  4.53040704604538E+02
(PID.TID 0000.0001)      cg2d_init_res =   5.05177152082002E-06
(PID.TID 0000.0001)      cg2d_iters(min,last) =      -1      77
(PID.TID 0000.0001)      cg2d_last_res =   9.41900111481481E-12
(PID.TID 0000.0001) // =======================================================
(PID.TID 0000.0001) // Begin MONITOR dynamic field statistics
(PID.TID 0000.0001) // =======================================================
(PID.TID 0000.0001) %MON time_tsnumber                =                  1367
(PID.TID 0000.0001) %MON time_secondsf                =   1.3670000000000E+05
(PID.TID 0000.0001) %MON dynstat_eta_max              =   5.7992572253411E+00
(PID.TID 0000.0001) %MON dynstat_eta_min              =  -1.4167841173622E+01
(PID.TID 0000.0001) %MON dynstat_eta_mean             =  -2.5227358641413E+00
(PID.TID 0000.0001) %MON dynstat_eta_sd               =   4.9406931777226E+00
(PID.TID 0000.0001) %MON dynstat_eta_del2             =   1.9059171933749E-01
(PID.TID 0000.0001) %MON dynstat_uvel_max             =   1.0689436223470E-02
(PID.TID 0000.0001) %MON dynstat_uvel_min             =  -4.8330570022427E-02
(PID.TID 0000.0001) %MON dynstat_uvel_mean            =   4.4074112856398E-09
(PID.TID 0000.0001) %MON dynstat_uvel_sd              =   1.3793939426744E-03
(PID.TID 0000.0001) %MON dynstat_uvel_del2            =   2.1295185584915E-06
(PID.TID 0000.0001) %MON dynstat_vvel_max             =   3.0157729887003E-02
(PID.TID 0000.0001) %MON dynstat_vvel_min             =  -1.3726927275133E-02
(PID.TID 0000.0001) %MON dynstat_vvel_mean            =   7.6168327416865E-08
(PID.TID 0000.0001) %MON dynstat_vvel_sd              =   6.1972300177856E-04
(PID.TID 0000.0001) %MON dynstat_vvel_del2            =   1.6365531428785E-06
(PID.TID 0000.0001) %MON dynstat_wvel_max             =   1.9045866307560E-03
(PID.TID 0000.0001) %MON dynstat_wvel_min             =  -2.4623183414234E-03
(PID.TID 0000.0001) %MON dynstat_wvel_mean            =   3.7564307457026E-10
(PID.TID 0000.0001) %MON dynstat_wvel_sd              =   3.1660230652823E-05
(PID.TID 0000.0001) %MON dynstat_wvel_del2            =   1.2436466154482E-07
(PID.TID 0000.0001) %MON dynstat_theta_max            =   1.2000000000000E+00
(PID.TID 0000.0001) %MON dynstat_theta_min            =  -1.0000000000000E+00
(PID.TID 0000.0001) %MON dynstat_theta_mean           =   5.6495388339840E-01
(PID.TID 0000.0001) %MON dynstat_theta_sd             =   8.4886019205996E-01
(PID.TID 0000.0001) %MON dynstat_theta_del2           =   4.5295855013624E-06
(PID.TID 0000.0001) %MON dynstat_salt_max             =   3.4700000000000E+01
(PID.TID 0000.0001) %MON dynstat_salt_min             =   3.4000000000000E+01
(PID.TID 0000.0001) %MON dynstat_salt_mean            =   3.4497895629726E+01
(PID.TID 0000.0001) %MON dynstat_salt_sd              =   2.7008273278192E-01
(PID.TID 0000.0001) %MON dynstat_salt_del2            =   1.7935373110286E-06
(PID.TID 0000.0001) %MON advcfl_uvel_max              =   4.8330570022427E-03
(PID.TID 0000.0001) %MON advcfl_vvel_max              =   3.0157729887003E-03
(PID.TID 0000.0001) %MON advcfl_wvel_max              =   1.2311591707117E-02
(PID.TID 0000.0001) %MON advcfl_W_hf_max              =   1.2311591707117E-02
(PID.TID 0000.0001) %MON pe_b_mean                    =  -6.8156452406425E-01
(PID.TID 0000.0001) %MON ke_max                       =   1.0633085769288E-03
(PID.TID 0000.0001) %MON ke_mean                      =   1.1255023541087E-06
(PID.TID 0000.0001) %MON ke_vol                       =   4.6183148954382E+12
(PID.TID 0000.0001) // =======================================================
(PID.TID 0000.0001) // End MONITOR dynamic field statistics
(PID.TID 0000.0001) // =======================================================
(PID.TID 0000.0001) // =======================================================
(PID.TID 0000.0001) // Begin OBCS MONITOR field statistics
(PID.TID 0000.0001) // =======================================================
(PID.TID 0000.0001) %MON obc_N_vVel_max               =   3.6625707662382E-08
(PID.TID 0000.0001) %MON obc_N_vVel_min               =   3.6625707662382E-08
(PID.TID 0000.0001) %MON obc_N_vVel_mean              =   3.6625707662382E-08
(PID.TID 0000.0001) %MON obc_N_vVel_sd                =   2.5510982866353E-15
(PID.TID 0000.0001) %MON obc_N_vVel_Int               =   2.4172967057172E+00
(PID.TID 0000.0001) // =======================================================
(PID.TID 0000.0001) // End OBCS MONITOR field statistics
(PID.TID 0000.0001) // =======================================================
 cg2d: Sum(rhs),rhsMax =   3.00695397420355E+00  4.53040684934453E+02
(PID.TID 0000.0001)      cg2d_init_res =   5.06058741519880E-06
(PID.TID 0000.0001)      cg2d_iters(min,last) =      -1      77
(PID.TID 0000.0001)      cg2d_last_res =   9.44011227543471E-12
(PID.TID 0000.0001) // =======================================================
(PID.TID 0000.0001) // Begin MONITOR dynamic field statistics
(PID.TID 0000.0001) // =======================================================
(PID.TID 0000.0001) %MON time_tsnumber                =                  1368
(PID.TID 0000.0001) %MON time_secondsf                =   1.3680000000000E+05
(PID.TID 0000.0001) %MON dynstat_eta_max              =   5.7992601799283E+00
(PID.TID 0000.0001) %MON dynstat_eta_min              =  -1.4167821581760E+01
(PID.TID 0000.0001) %MON dynstat_eta_mean             =  -2.5227268297029E+00
(PID.TID 0000.0001) %MON dynstat_eta_sd               =   4.9406905806796E+00
(PID.TID 0000.0001) %MON dynstat_eta_del2             =   1.9059174679763E-01
(PID.TID 0000.0001) %MON dynstat_uvel_max             =   1.0711857284853E-02
(PID.TID 0000.0001) %MON dynstat_uvel_min             =  -4.8429086707109E-02
(PID.TID 0000.0001) %MON dynstat_uvel_mean            =   4.4169427070450E-09
(PID.TID 0000.0001) %MON dynstat_uvel_sd              =   1.3825305556544E-03
(PID.TID 0000.0001) %MON dynstat_uvel_del2            =   2.1345251956353E-06
(PID.TID 0000.0001) %MON dynstat_vvel_max             =   3.0200268044974E-02
(PID.TID 0000.0001) %MON dynstat_vvel_min             =  -1.3764823933400E-02
(PID.TID 0000.0001) %MON dynstat_vvel_mean            =   6.9874678416301E-08
(PID.TID 0000.0001) %MON dynstat_vvel_sd              =   6.2093843187315E-04
(PID.TID 0000.0001) %MON dynstat_vvel_del2            =   1.6395546059096E-06
(PID.TID 0000.0001) %MON dynstat_wvel_max             =   1.9080172477537E-03
(PID.TID 0000.0001) %MON dynstat_wvel_min             =  -2.4669551994192E-03
(PID.TID 0000.0001) %MON dynstat_wvel_mean            =   3.7892634657570E-10
(PID.TID 0000.0001) %MON dynstat_wvel_sd              =   3.1722858381586E-05
(PID.TID 0000.0001) %MON dynstat_wvel_del2            =   1.2457549255595E-07
(PID.TID 0000.0001) %MON dynstat_theta_max            =   1.2000000000000E+00
(PID.TID 0000.0001) %MON dynstat_theta_min            =  -1.0000000000000E+00
(PID.TID 0000.0001) %MON dynstat_theta_mean           =   5.6495287791106E-01
(PID.TID 0000.0001) %MON dynstat_theta_sd             =   8.4885973710826E-01
(PID.TID 0000.0001) %MON dynstat_theta_del2           =   4.5376952356217E-06
(PID.TID 0000.0001) %MON dynstat_salt_max             =   3.4700000000000E+01
(PID.TID 0000.0001) %MON dynstat_salt_min             =   3.4000000000000E+01
(PID.TID 0000.0001) %MON dynstat_salt_mean            =   3.4497895227791E+01
(PID.TID 0000.0001) %MON dynstat_salt_sd              =   2.7008256123754E-01
(PID.TID 0000.0001) %MON dynstat_salt_del2            =   1.7967646380323E-06
(PID.TID 0000.0001) %MON advcfl_uvel_max              =   4.8429086707109E-03
(PID.TID 0000.0001) %MON advcfl_vvel_max              =   3.0200268044974E-03
(PID.TID 0000.0001) %MON advcfl_wvel_max              =   1.2334775997096E-02
(PID.TID 0000.0001) %MON advcfl_W_hf_max              =   1.2334775997096E-02
(PID.TID 0000.0001) %MON pe_b_mean                    =  -6.8156180794920E-01
(PID.TID 0000.0001) %MON ke_max                       =   1.0681671037930E-03
(PID.TID 0000.0001) %MON ke_mean                      =   1.1305064187519E-06
(PID.TID 0000.0001) %MON ke_vol                       =   4.6183149489670E+12
(PID.TID 0000.0001) // =======================================================
(PID.TID 0000.0001) // End MONITOR dynamic field statistics
(PID.TID 0000.0001) // =======================================================
(PID.TID 0000.0001) // =======================================================
(PID.TID 0000.0001) // Begin OBCS MONITOR field statistics
(PID.TID 0000.0001) // =======================================================
(PID.TID 0000.0001) %MON obc_N_vVel_max               =   3.0422965002649E-08
(PID.TID 0000.0001) %MON obc_N_vVel_min               =   3.0422965002648E-08
(PID.TID 0000.0001) %MON obc_N_vVel_mean              =   3.0422965002648E-08
(PID.TID 0000.0001) %MON obc_N_vVel_sd                =   8.2724653839060E-15
(PID.TID 0000.0001) %MON obc_N_vVel_Int               =   2.0079156901748E+00
(PID.TID 0000.0001) // =======================================================
(PID.TID 0000.0001) // End OBCS MONITOR field statistics
(PID.TID 0000.0001) // =======================================================
 cg2d: Sum(rhs),rhsMax =   3.00694330969677E+00  4.53040665194068E+02
(PID.TID 0000.0001)      cg2d_init_res =   5.06934062771611E-06
(PID.TID 0000.0001)      cg2d_iters(min,last) =      -1      77
(PID.TID 0000.0001)      cg2d_last_res =   9.46124005747832E-12
(PID.TID 0000.0001) // =======================================================
(PID.TID 0000.0001) // Begin MONITOR dynamic field statistics
(PID.TID 0000.0001) // =======================================================
(PID.TID 0000.0001) %MON time_tsnumber                =                  1369
(PID.TID 0000.0001) %MON time_secondsf                =   1.3690000000000E+05
(PID.TID 0000.0001) %MON dynstat_eta_max              =   5.7992631483394E+00
(PID.TID 0000.0001) %MON dynstat_eta_min              =  -1.4167801935162E+01
(PID.TID 0000.0001) %MON dynstat_eta_mean             =  -2.5227177726405E+00
(PID.TID 0000.0001) %MON dynstat_eta_sd               =   4.9406879771371E+00
(PID.TID 0000.0001) %MON dynstat_eta_del2             =   1.9059177430262E-01
(PID.TID 0000.0001) %MON dynstat_uvel_max             =   1.0734295434020E-02
(PID.TID 0000.0001) %MON dynstat_uvel_min             =  -4.8527736538074E-02
(PID.TID 0000.0001) %MON dynstat_uvel_mean            =   4.4208907940710E-09
(PID.TID 0000.0001) %MON dynstat_uvel_sd              =   1.3856729907074E-03
(PID.TID 0000.0001) %MON dynstat_uvel_del2            =   2.1395423981315E-06
(PID.TID 0000.0001) %MON dynstat_vvel_max             =   3.0242813062219E-02
(PID.TID 0000.0001) %MON dynstat_vvel_min             =  -1.3802790220623E-02
(PID.TID 0000.0001) %MON dynstat_vvel_mean            =   6.3909681996282E-08
(PID.TID 0000.0001) %MON dynstat_vvel_sd              =   6.2215560639076E-04
(PID.TID 0000.0001) %MON dynstat_vvel_del2            =   1.6425590570915E-06
(PID.TID 0000.0001) %MON dynstat_wvel_max             =   1.9114500508619E-03
(PID.TID 0000.0001) %MON dynstat_wvel_min             =  -2.4715861205836E-03
(PID.TID 0000.0001) %MON dynstat_wvel_mean            =   3.8307328044762E-10
(PID.TID 0000.0001) %MON dynstat_wvel_sd              =   3.1784897246096E-05
(PID.TID 0000.0001) %MON dynstat_wvel_del2            =   1.2478355191702E-07
(PID.TID 0000.0001) %MON dynstat_theta_max            =   1.2000000000000E+00
(PID.TID 0000.0001) %MON dynstat_theta_min            =  -1.0000000000000E+00
(PID.TID 0000.0001) %MON dynstat_theta_mean           =   5.6495187061399E-01
(PID.TID 0000.0001) %MON dynstat_theta_sd             =   8.4885928141450E-01
(PID.TID 0000.0001) %MON dynstat_theta_del2           =   4.5458153599035E-06
(PID.TID 0000.0001) %MON dynstat_salt_max             =   3.4700000000000E+01
(PID.TID 0000.0001) %MON dynstat_salt_min             =   3.4000000000000E+01
(PID.TID 0000.0001) %MON dynstat_salt_mean            =   3.4497894825135E+01
(PID.TID 0000.0001) %MON dynstat_salt_sd              =   2.7008238941836E-01
(PID.TID 0000.0001) %MON dynstat_salt_del2            =   1.7999961467536E-06
(PID.TID 0000.0001) %MON advcfl_uvel_max              =   4.8527736538074E-03
(PID.TID 0000.0001) %MON advcfl_vvel_max              =   3.0242813062219E-03
(PID.TID 0000.0001) %MON advcfl_wvel_max              =   1.2357930602918E-02
(PID.TID 0000.0001) %MON advcfl_W_hf_max              =   1.2357930602918E-02
(PID.TID 0000.0001) %MON pe_b_mean                    =  -6.8155908569060E-01
(PID.TID 0000.0001) %MON ke_max                       =   1.0730441100745E-03
(PID.TID 0000.0001) %MON ke_mean                      =   1.1355306151700E-06
(PID.TID 0000.0001) %MON ke_vol                       =   4.6183150026316E+12
(PID.TID 0000.0001) // =======================================================
(PID.TID 0000.0001) // End MONITOR dynamic field statistics
(PID.TID 0000.0001) // =======================================================
(PID.TID 0000.0001) // =======================================================
(PID.TID 0000.0001) // Begin OBCS MONITOR field statistics
(PID.TID 0000.0001) // =======================================================
(PID.TID 0000.0001) %MON obc_N_vVel_max               =   2.4451762504947E-08
(PID.TID 0000.0001) %MON obc_N_vVel_min               =   2.4451762504946E-08
(PID.TID 0000.0001) %MON obc_N_vVel_mean              =   2.4451762504946E-08
(PID.TID 0000.0001) %MON obc_N_vVel_sd                =   7.0005702436912E-15
(PID.TID 0000.0001) %MON obc_N_vVel_Int               =   1.6138163253264E+00
(PID.TID 0000.0001) // =======================================================
(PID.TID 0000.0001) // End OBCS MONITOR field statistics
(PID.TID 0000.0001) // =======================================================
 cg2d: Sum(rhs),rhsMax =   3.00693261902200E+00  4.53040645398435E+02
(PID.TID 0000.0001)      cg2d_init_res =   5.07802213500832E-06
(PID.TID 0000.0001)      cg2d_iters(min,last) =      -1      77
(PID.TID 0000.0001)      cg2d_last_res =   9.48236151407432E-12
(PID.TID 0000.0001) // =======================================================
(PID.TID 0000.0001) // Begin MONITOR dynamic field statistics
(PID.TID 0000.0001) // =======================================================
(PID.TID 0000.0001) %MON time_tsnumber                =                  1370
(PID.TID 0000.0001) %MON time_secondsf                =   1.3700000000000E+05
(PID.TID 0000.0001) %MON dynstat_eta_max              =   5.7992661297838E+00
(PID.TID 0000.0001) %MON dynstat_eta_min              =  -1.4167782234670E+01
(PID.TID 0000.0001) %MON dynstat_eta_mean             =  -2.5227086933173E+00
(PID.TID 0000.0001) %MON dynstat_eta_sd               =   4.9406853673148E+00
(PID.TID 0000.0001) %MON dynstat_eta_del2             =   1.9059180185307E-01
(PID.TID 0000.0001) %MON dynstat_uvel_max             =   1.0756750460249E-02
(PID.TID 0000.0001) %MON dynstat_uvel_min             =  -4.8626519745184E-02
(PID.TID 0000.0001) %MON dynstat_uvel_mean            =   4.4195695057968E-09
(PID.TID 0000.0001) %MON dynstat_uvel_sd              =   1.3888212498599E-03
(PID.TID 0000.0001) %MON dynstat_uvel_del2            =   2.1445701798224E-06
(PID.TID 0000.0001) %MON dynstat_vvel_max             =   3.0285364911244E-02
(PID.TID 0000.0001) %MON dynstat_vvel_min             =  -1.3840826237473E-02
(PID.TID 0000.0001) %MON dynstat_vvel_mean            =   5.8393448646569E-08
(PID.TID 0000.0001) %MON dynstat_vvel_sd              =   6.2337452054610E-04
(PID.TID 0000.0001) %MON dynstat_vvel_del2            =   1.6455664552362E-06
(PID.TID 0000.0001) %MON dynstat_wvel_max             =   1.9148850383483E-03
(PID.TID 0000.0001) %MON dynstat_wvel_min             =  -2.4762109923979E-03
(PID.TID 0000.0001) %MON dynstat_wvel_mean            =   3.8800882737667E-10
(PID.TID 0000.0001) %MON dynstat_wvel_sd              =   3.1846324194168E-05
(PID.TID 0000.0001) %MON dynstat_wvel_del2            =   1.2498863035435E-07
(PID.TID 0000.0001) %MON dynstat_theta_max            =   1.2000000000000E+00
(PID.TID 0000.0001) %MON dynstat_theta_min            =  -1.0000000000000E+00
(PID.TID 0000.0001) %MON dynstat_theta_mean           =   5.6495086150431E-01
(PID.TID 0000.0001) %MON dynstat_theta_sd             =   8.4885882498025E-01
(PID.TID 0000.0001) %MON dynstat_theta_del2           =   4.5539462365395E-06
(PID.TID 0000.0001) %MON dynstat_salt_max             =   3.4700000000000E+01
(PID.TID 0000.0001) %MON dynstat_salt_min             =   3.4000000000000E+01
(PID.TID 0000.0001) %MON dynstat_salt_mean            =   3.4497894421757E+01
(PID.TID 0000.0001) %MON dynstat_salt_sd              =   2.7008221732463E-01
(PID.TID 0000.0001) %MON dynstat_salt_del2            =   1.8032317226516E-06
(PID.TID 0000.0001) %MON advcfl_uvel_max              =   4.8626519745184E-03
(PID.TID 0000.0001) %MON advcfl_vvel_max              =   3.0285364911244E-03
(PID.TID 0000.0001) %MON advcfl_wvel_max              =   1.2381054961989E-02
(PID.TID 0000.0001) %MON advcfl_W_hf_max              =   1.2381054961989E-02
(PID.TID 0000.0001) %MON pe_b_mean                    =  -6.8155635738367E-01
(PID.TID 0000.0001) %MON ke_max                       =   1.0779396468579E-03
(PID.TID 0000.0001) %MON ke_mean                      =   1.1405750033671E-06
(PID.TID 0000.0001) %MON ke_vol                       =   4.6183150564305E+12
(PID.TID 0000.0001) // =======================================================
(PID.TID 0000.0001) // End MONITOR dynamic field statistics
(PID.TID 0000.0001) // =======================================================
(PID.TID 0000.0001) // =======================================================
(PID.TID 0000.0001) // Begin OBCS MONITOR field statistics
(PID.TID 0000.0001) // =======================================================
(PID.TID 0000.0001) %MON obc_N_vVel_max               =   1.8831551261640E-08
(PID.TID 0000.0001) %MON obc_N_vVel_min               =   1.8831551261639E-08
(PID.TID 0000.0001) %MON obc_N_vVel_mean              =   1.8831551261639E-08
(PID.TID 0000.0001) %MON obc_N_vVel_sd                =   2.8435583831733E-15
(PID.TID 0000.0001) %MON obc_N_vVel_Int               =   1.2428823832682E+00
(PID.TID 0000.0001) // =======================================================
(PID.TID 0000.0001) // End OBCS MONITOR field statistics
(PID.TID 0000.0001) // =======================================================
 cg2d: Sum(rhs),rhsMax =   3.00692190265520E+00  4.53040625563309E+02
(PID.TID 0000.0001)      cg2d_init_res =   5.08662700437393E-06
(PID.TID 0000.0001)      cg2d_iters(min,last) =      -1      77
(PID.TID 0000.0001)      cg2d_last_res =   9.50345660473199E-12
(PID.TID 0000.0001) // =======================================================
(PID.TID 0000.0001) // Begin MONITOR dynamic field statistics
(PID.TID 0000.0001) // =======================================================
(PID.TID 0000.0001) %MON time_tsnumber                =                  1371
(PID.TID 0000.0001) %MON time_secondsf                =   1.3710000000000E+05
(PID.TID 0000.0001) %MON dynstat_eta_max              =   5.7992691232814E+00
(PID.TID 0000.0001) %MON dynstat_eta_min              =  -1.4167762481327E+01
(PID.TID 0000.0001) %MON dynstat_eta_mean             =  -2.5226995922202E+00
(PID.TID 0000.0001) %MON dynstat_eta_sd               =   4.9406827514645E+00
(PID.TID 0000.0001) %MON dynstat_eta_del2             =   1.9059182944964E-01
(PID.TID 0000.0001) %MON dynstat_uvel_max             =   1.0779222149944E-02
(PID.TID 0000.0001) %MON dynstat_uvel_min             =  -4.8725436556691E-02
(PID.TID 0000.0001) %MON dynstat_uvel_mean            =   4.4133836110114E-09
(PID.TID 0000.0001) %MON dynstat_uvel_sd              =   1.3919753349108E-03
(PID.TID 0000.0001) %MON dynstat_uvel_del2            =   2.1496085551586E-06
(PID.TID 0000.0001) %MON dynstat_vvel_max             =   3.0327923566145E-02
(PID.TID 0000.0001) %MON dynstat_vvel_min             =  -1.3878932085390E-02
(PID.TID 0000.0001) %MON dynstat_vvel_mean            =   5.3436552982889E-08
(PID.TID 0000.0001) %MON dynstat_vvel_sd              =   6.2459517964133E-04
(PID.TID 0000.0001) %MON dynstat_vvel_del2            =   1.6485768027448E-06
(PID.TID 0000.0001) %MON dynstat_wvel_max             =   1.9183222075687E-03
(PID.TID 0000.0001) %MON dynstat_wvel_min             =  -2.4808297016605E-03
(PID.TID 0000.0001) %MON dynstat_wvel_mean            =   3.9364473662343E-10
(PID.TID 0000.0001) %MON dynstat_wvel_sd              =   3.1907150040169E-05
(PID.TID 0000.0001) %MON dynstat_wvel_del2            =   1.2519072410091E-07
(PID.TID 0000.0001) %MON dynstat_theta_max            =   1.2000000000000E+00
(PID.TID 0000.0001) %MON dynstat_theta_min            =  -1.0000000000000E+00
(PID.TID 0000.0001) %MON dynstat_theta_mean           =   5.6494985057926E-01
(PID.TID 0000.0001) %MON dynstat_theta_sd             =   8.4885836780628E-01
(PID.TID 0000.0001) %MON dynstat_theta_del2           =   4.5620878714600E-06
(PID.TID 0000.0001) %MON dynstat_salt_max             =   3.4700000000000E+01
(PID.TID 0000.0001) %MON dynstat_salt_min             =   3.4000000000000E+01
(PID.TID 0000.0001) %MON dynstat_salt_mean            =   3.4497894017654E+01
(PID.TID 0000.0001) %MON dynstat_salt_sd              =   2.7008204495666E-01
(PID.TID 0000.0001) %MON dynstat_salt_del2            =   1.8064714086696E-06
(PID.TID 0000.0001) %MON advcfl_uvel_max              =   4.8725436556691E-03
(PID.TID 0000.0001) %MON advcfl_vvel_max              =   3.0327923566145E-03
(PID.TID 0000.0001) %MON advcfl_wvel_max              =   1.2404148508303E-02
(PID.TID 0000.0001) %MON advcfl_W_hf_max              =   1.2404148508303E-02
(PID.TID 0000.0001) %MON pe_b_mean                    =  -6.8155362314662E-01
(PID.TID 0000.0001) %MON ke_max                       =   1.0828537654183E-03
(PID.TID 0000.0001) %MON ke_mean                      =   1.1456396494449E-06
(PID.TID 0000.0001) %MON ke_vol                       =   4.6183151103617E+12
(PID.TID 0000.0001) // =======================================================
(PID.TID 0000.0001) // End MONITOR dynamic field statistics
(PID.TID 0000.0001) // =======================================================
(PID.TID 0000.0001) // =======================================================
(PID.TID 0000.0001) // Begin OBCS MONITOR field statistics
(PID.TID 0000.0001) // =======================================================
(PID.TID 0000.0001) %MON obc_N_vVel_max               =   1.3674126023556E-08
(PID.TID 0000.0001) %MON obc_N_vVel_min               =   1.3674126023555E-08
(PID.TID 0000.0001) %MON obc_N_vVel_mean              =   1.3674126023555E-08
(PID.TID 0000.0001) %MON obc_N_vVel_sd                =   3.3158330576972E-15
(PID.TID 0000.0001) %MON obc_N_vVel_Int               =   9.0249231755465E-01
(PID.TID 0000.0001) // =======================================================
(PID.TID 0000.0001) // End OBCS MONITOR field statistics
(PID.TID 0000.0001) // =======================================================
 cg2d: Sum(rhs),rhsMax =   3.00691116120703E+00  4.53040605704442E+02
(PID.TID 0000.0001)      cg2d_init_res =   5.09515355041058E-06
(PID.TID 0000.0001)      cg2d_iters(min,last) =      -1      77
(PID.TID 0000.0001)      cg2d_last_res =   9.52451127177350E-12
(PID.TID 0000.0001) // =======================================================
(PID.TID 0000.0001) // Begin MONITOR dynamic field statistics
(PID.TID 0000.0001) // =======================================================
(PID.TID 0000.0001) %MON time_tsnumber                =                  1372
(PID.TID 0000.0001) %MON time_secondsf                =   1.3720000000000E+05
(PID.TID 0000.0001) %MON dynstat_eta_max              =   5.7992721276598E+00
(PID.TID 0000.0001) %MON dynstat_eta_min              =  -1.4167742676396E+01
(PID.TID 0000.0001) %MON dynstat_eta_mean             =  -2.5226904699494E+00
(PID.TID 0000.0001) %MON dynstat_eta_sd               =   4.9406801298637E+00
(PID.TID 0000.0001) %MON dynstat_eta_del2             =   1.9059185709296E-01
(PID.TID 0000.0001) %MON dynstat_uvel_max             =   1.0801710287761E-02
(PID.TID 0000.0001) %MON dynstat_uvel_min             =  -4.8824487198620E-02
(PID.TID 0000.0001) %MON dynstat_uvel_mean            =   4.4028106821183E-09
(PID.TID 0000.0001) %MON dynstat_uvel_sd              =   1.3951352475331E-03
(PID.TID 0000.0001) %MON dynstat_uvel_del2            =   2.1546575383514E-06
(PID.TID 0000.0001) %MON dynstat_vvel_max             =   3.0370489002067E-02
(PID.TID 0000.0001) %MON dynstat_vvel_min             =  -1.3917107865440E-02
(PID.TID 0000.0001) %MON dynstat_vvel_mean            =   4.9137871172335E-08
(PID.TID 0000.0001) %MON dynstat_vvel_sd              =   6.2581759777779E-04
(PID.TID 0000.0001) %MON dynstat_vvel_del2            =   1.6515901401504E-06
(PID.TID 0000.0001) %MON dynstat_wvel_max             =   1.9217615550176E-03
(PID.TID 0000.0001) %MON dynstat_wvel_min             =  -2.4854421346777E-03
(PID.TID 0000.0001) %MON dynstat_wvel_mean            =   3.9987843642548E-10
(PID.TID 0000.0001) %MON dynstat_wvel_sd              =   3.1967417627308E-05
(PID.TID 0000.0001) %MON dynstat_wvel_del2            =   1.2539002799155E-07
(PID.TID 0000.0001) %MON dynstat_theta_max            =   1.2000000000000E+00
(PID.TID 0000.0001) %MON dynstat_theta_min            =  -1.0000000000000E+00
(PID.TID 0000.0001) %MON dynstat_theta_mean           =   5.6494883783618E-01
(PID.TID 0000.0001) %MON dynstat_theta_sd             =   8.4885790989246E-01
(PID.TID 0000.0001) %MON dynstat_theta_del2           =   4.5702401589756E-06
(PID.TID 0000.0001) %MON dynstat_salt_max             =   3.4700000000000E+01
(PID.TID 0000.0001) %MON dynstat_salt_min             =   3.4000000000000E+01
(PID.TID 0000.0001) %MON dynstat_salt_mean            =   3.4497893612827E+01
(PID.TID 0000.0001) %MON dynstat_salt_sd              =   2.7008187231468E-01
(PID.TID 0000.0001) %MON dynstat_salt_del2            =   1.8097152262697E-06
(PID.TID 0000.0001) %MON advcfl_uvel_max              =   4.8824487198620E-03
(PID.TID 0000.0001) %MON advcfl_vvel_max              =   3.0370489002067E-03
(PID.TID 0000.0001) %MON advcfl_wvel_max              =   1.2427210673389E-02
(PID.TID 0000.0001) %MON advcfl_W_hf_max              =   1.2427210673389E-02
(PID.TID 0000.0001) %MON pe_b_mean                    =  -6.8155088311794E-01
(PID.TID 0000.0001) %MON ke_max                       =   1.0877865171776E-03
(PID.TID 0000.0001) %MON ke_mean                      =   1.1507246249940E-06
(PID.TID 0000.0001) %MON ke_vol                       =   4.6183151644222E+12
(PID.TID 0000.0001) // =======================================================
(PID.TID 0000.0001) // End MONITOR dynamic field statistics
(PID.TID 0000.0001) // =======================================================
(PID.TID 0000.0001) // =======================================================
(PID.TID 0000.0001) // Begin OBCS MONITOR field statistics
(PID.TID 0000.0001) // =======================================================
(PID.TID 0000.0001) %MON obc_N_vVel_max               =   9.0815089710385E-09
(PID.TID 0000.0001) %MON obc_N_vVel_min               =   9.0815089710384E-09
(PID.TID 0000.0001) %MON obc_N_vVel_mean              =   9.0815089710384E-09
(PID.TID 0000.0001) %MON obc_N_vVel_sd                =  -3.0814879110196E-31
(PID.TID 0000.0001) %MON obc_N_vVel_Int               =   5.9937959208853E-01
(PID.TID 0000.0001) // =======================================================
(PID.TID 0000.0001) // End OBCS MONITOR field statistics
(PID.TID 0000.0001) // =======================================================
 cg2d: Sum(rhs),rhsMax =   3.00690039540322E+00  4.53040585838274E+02
(PID.TID 0000.0001)      cg2d_init_res =   5.10360337483313E-06
(PID.TID 0000.0001)      cg2d_iters(min,last) =      -1      77
(PID.TID 0000.0001)      cg2d_last_res =   9.54549045053246E-12
(PID.TID 0000.0001) // =======================================================
(PID.TID 0000.0001) // Begin MONITOR dynamic field statistics
(PID.TID 0000.0001) // =======================================================
(PID.TID 0000.0001) %MON time_tsnumber                =                  1373
(PID.TID 0000.0001) %MON time_secondsf                =   1.3730000000000E+05
(PID.TID 0000.0001) %MON dynstat_eta_max              =   5.7992751416250E+00
(PID.TID 0000.0001) %MON dynstat_eta_min              =  -1.4167722821288E+01
(PID.TID 0000.0001) %MON dynstat_eta_mean             =  -2.5226813272052E+00
(PID.TID 0000.0001) %MON dynstat_eta_sd               =   4.9406775028110E+00
(PID.TID 0000.0001) %MON dynstat_eta_del2             =   1.9059188478372E-01
(PID.TID 0000.0001) %MON dynstat_uvel_max             =   1.0824214656658E-02
(PID.TID 0000.0001) %MON dynstat_uvel_min             =  -4.8923671894383E-02
(PID.TID 0000.0001) %MON dynstat_uvel_mean            =   4.3884099579413E-09
(PID.TID 0000.0001) %MON dynstat_uvel_sd              =   1.3983009892877E-03
(PID.TID 0000.0001) %MON dynstat_uvel_del2            =   2.1597171433843E-06
(PID.TID 0000.0001) %MON dynstat_vvel_max             =   3.0413061194962E-02
(PID.TID 0000.0001) %MON dynstat_vvel_min             =  -1.3955353678208E-02
(PID.TID 0000.0001) %MON dynstat_vvel_mean            =   4.5582761801629E-08
(PID.TID 0000.0001) %MON dynstat_vvel_sd              =   6.2704179713093E-04
(PID.TID 0000.0001) %MON dynstat_vvel_del2            =   1.6546065406287E-06
(PID.TID 0000.0001) %MON dynstat_wvel_max             =   1.9252030764864E-03
(PID.TID 0000.0001) %MON dynstat_wvel_min             =  -2.4900481772852E-03
(PID.TID 0000.0001) %MON dynstat_wvel_mean            =   4.0659574756216E-10
(PID.TID 0000.0001) %MON dynstat_wvel_sd              =   3.2027197898487E-05
(PID.TID 0000.0001) %MON dynstat_wvel_del2            =   1.2558691482848E-07
(PID.TID 0000.0001) %MON dynstat_theta_max            =   1.2000000000000E+00
(PID.TID 0000.0001) %MON dynstat_theta_min            =  -1.0000000000000E+00
(PID.TID 0000.0001) %MON dynstat_theta_mean           =   5.6494782327256E-01
(PID.TID 0000.0001) %MON dynstat_theta_sd             =   8.4885745123871E-01
(PID.TID 0000.0001) %MON dynstat_theta_del2           =   4.5784029567826E-06
(PID.TID 0000.0001) %MON dynstat_salt_max             =   3.4700000000000E+01
(PID.TID 0000.0001) %MON dynstat_salt_min             =   3.4000000000000E+01
(PID.TID 0000.0001) %MON dynstat_salt_mean            =   3.4497893207275E+01
(PID.TID 0000.0001) %MON dynstat_salt_sd              =   2.7008169939862E-01
(PID.TID 0000.0001) %MON dynstat_salt_del2            =   1.8129631347453E-06
(PID.TID 0000.0001) %MON advcfl_uvel_max              =   4.8923671894383E-03
(PID.TID 0000.0001) %MON advcfl_vvel_max              =   3.0413061194962E-03
(PID.TID 0000.0001) %MON advcfl_wvel_max              =   1.2450240886426E-02
(PID.TID 0000.0001) %MON advcfl_W_hf_max              =   1.2450240886426E-02
(PID.TID 0000.0001) %MON pe_b_mean                    =  -6.8154813745353E-01
(PID.TID 0000.0001) %MON ke_max                       =   1.0927379536999E-03
(PID.TID 0000.0001) %MON ke_mean                      =   1.1558300067122E-06
(PID.TID 0000.0001) %MON ke_vol                       =   4.6183152186085E+12
(PID.TID 0000.0001) // =======================================================
(PID.TID 0000.0001) // End MONITOR dynamic field statistics
(PID.TID 0000.0001) // =======================================================
(PID.TID 0000.0001) // =======================================================
(PID.TID 0000.0001) // Begin OBCS MONITOR field statistics
(PID.TID 0000.0001) // =======================================================
(PID.TID 0000.0001) %MON obc_N_vVel_max               =   5.1440578778232E-09
(PID.TID 0000.0001) %MON obc_N_vVel_min               =   5.1440578778230E-09
(PID.TID 0000.0001) %MON obc_N_vVel_mean              =   5.1440578778232E-09
(PID.TID 0000.0001) %MON obc_N_vVel_sd                =  -1.0631133293018E-30
(PID.TID 0000.0001) %MON obc_N_vVel_Int               =   3.3950781993633E-01
(PID.TID 0000.0001) // =======================================================
(PID.TID 0000.0001) // End OBCS MONITOR field statistics
(PID.TID 0000.0001) // =======================================================
 cg2d: Sum(rhs),rhsMax =   3.00688960607600E+00  4.53040565980482E+02
(PID.TID 0000.0001)      cg2d_init_res =   5.11198077074657E-06
(PID.TID 0000.0001)      cg2d_iters(min,last) =      -1      77
(PID.TID 0000.0001)      cg2d_last_res =   9.56638400968729E-12
(PID.TID 0000.0001) // =======================================================
(PID.TID 0000.0001) // Begin MONITOR dynamic field statistics
(PID.TID 0000.0001) // =======================================================
(PID.TID 0000.0001) %MON time_tsnumber                =                  1374
(PID.TID 0000.0001) %MON time_secondsf                =   1.3740000000000E+05
(PID.TID 0000.0001) %MON dynstat_eta_max              =   5.7992781637442E+00
(PID.TID 0000.0001) %MON dynstat_eta_min              =  -1.4167702917558E+01
(PID.TID 0000.0001) %MON dynstat_eta_mean             =  -2.5226721647732E+00
(PID.TID 0000.0001) %MON dynstat_eta_sd               =   4.9406748706189E+00
(PID.TID 0000.0001) %MON dynstat_eta_del2             =   1.9059191252256E-01
(PID.TID 0000.0001) %MON dynstat_uvel_max             =   1.0846735037825E-02
(PID.TID 0000.0001) %MON dynstat_uvel_min             =  -4.9022990864468E-02
(PID.TID 0000.0001) %MON dynstat_uvel_mean            =   4.3708198526267E-09
(PID.TID 0000.0001) %MON dynstat_uvel_sd              =   1.4014725616075E-03
(PID.TID 0000.0001) %MON dynstat_uvel_del2            =   2.1647873841713E-06
(PID.TID 0000.0001) %MON dynstat_vvel_max             =   3.0455640120976E-02
(PID.TID 0000.0001) %MON dynstat_vvel_min             =  -1.3993669623941E-02
(PID.TID 0000.0001) %MON dynstat_vvel_mean            =   4.2841511888273E-08
(PID.TID 0000.0001) %MON dynstat_vvel_sd              =   6.2826780708867E-04
(PID.TID 0000.0001) %MON dynstat_vvel_del2            =   1.6576261026078E-06
(PID.TID 0000.0001) %MON dynstat_wvel_max             =   1.9286467671951E-03
(PID.TID 0000.0001) %MON dynstat_wvel_min             =  -2.4946477148440E-03
(PID.TID 0000.0001) %MON dynstat_wvel_mean            =   4.1367456389247E-10
(PID.TID 0000.0001) %MON dynstat_wvel_sd              =   3.2086584185919E-05
(PID.TID 0000.0001) %MON dynstat_wvel_del2            =   1.2578190228766E-07
(PID.TID 0000.0001) %MON dynstat_theta_max            =   1.2000000000000E+00
(PID.TID 0000.0001) %MON dynstat_theta_min            =  -1.0000000000000E+00
(PID.TID 0000.0001) %MON dynstat_theta_mean           =   5.6494680688596E-01
(PID.TID 0000.0001) %MON dynstat_theta_sd             =   8.4885699184500E-01
(PID.TID 0000.0001) %MON dynstat_theta_del2           =   4.5865762098574E-06
(PID.TID 0000.0001) %MON dynstat_salt_max             =   3.4700000000000E+01
(PID.TID 0000.0001) %MON dynstat_salt_min             =   3.4000000000000E+01
(PID.TID 0000.0001) %MON dynstat_salt_mean            =   3.4497892800995E+01
(PID.TID 0000.0001) %MON dynstat_salt_sd              =   2.7008152620859E-01
(PID.TID 0000.0001) %MON dynstat_salt_del2            =   1.8162151341249E-06
(PID.TID 0000.0001) %MON advcfl_uvel_max              =   4.9022990864468E-03
(PID.TID 0000.0001) %MON advcfl_vvel_max              =   3.0455640120976E-03
(PID.TID 0000.0001) %MON advcfl_wvel_max              =   1.2473238574220E-02
(PID.TID 0000.0001) %MON advcfl_W_hf_max              =   1.2473238574220E-02
(PID.TID 0000.0001) %MON pe_b_mean                    =  -6.8154538632329E-01
(PID.TID 0000.0001) %MON ke_max                       =   1.0977081266852E-03
(PID.TID 0000.0001) %MON ke_mean                      =   1.1609558758893E-06
(PID.TID 0000.0001) %MON ke_vol                       =   4.6183152729164E+12
(PID.TID 0000.0001) // =======================================================
(PID.TID 0000.0001) // End MONITOR dynamic field statistics
(PID.TID 0000.0001) // =======================================================
(PID.TID 0000.0001) // =======================================================
(PID.TID 0000.0001) // Begin OBCS MONITOR field statistics
(PID.TID 0000.0001) // =======================================================
(PID.TID 0000.0001) %MON obc_N_vVel_max               =   1.9387205936131E-09
(PID.TID 0000.0001) %MON obc_N_vVel_min               =   1.9387205936131E-09
(PID.TID 0000.0001) %MON obc_N_vVel_mean              =   1.9387205936131E-09
(PID.TID 0000.0001) %MON obc_N_vVel_sd                =  -1.4097807192915E-31
(PID.TID 0000.0001) %MON obc_N_vVel_Int               =   1.2795555917847E-01
(PID.TID 0000.0001) // =======================================================
(PID.TID 0000.0001) // End OBCS MONITOR field statistics
(PID.TID 0000.0001) // =======================================================
 cg2d: Sum(rhs),rhsMax =   3.00687879414524E+00  4.53040546145957E+02
(PID.TID 0000.0001)      cg2d_init_res =   5.12029355330237E-06
(PID.TID 0000.0001)      cg2d_iters(min,last) =      -1      77
(PID.TID 0000.0001)      cg2d_last_res =   9.58715656116869E-12
(PID.TID 0000.0001) // =======================================================
(PID.TID 0000.0001) // Begin MONITOR dynamic field statistics
(PID.TID 0000.0001) // =======================================================
(PID.TID 0000.0001) %MON time_tsnumber                =                  1375
(PID.TID 0000.0001) %MON time_secondsf                =   1.3750000000000E+05
(PID.TID 0000.0001) %MON dynstat_eta_max              =   5.7992811925005E+00
(PID.TID 0000.0001) %MON dynstat_eta_min              =  -1.4167682966855E+01
(PID.TID 0000.0001) %MON dynstat_eta_mean             =  -2.5226629835079E+00
(PID.TID 0000.0001) %MON dynstat_eta_sd               =   4.9406722336097E+00
(PID.TID 0000.0001) %MON dynstat_eta_del2             =   1.9059194031018E-01
(PID.TID 0000.0001) %MON dynstat_uvel_max             =   1.0869271212334E-02
(PID.TID 0000.0001) %MON dynstat_uvel_min             =  -4.9122444326538E-02
(PID.TID 0000.0001) %MON dynstat_uvel_mean            =   4.3507405174863E-09
(PID.TID 0000.0001) %MON dynstat_uvel_sd              =   1.4046499657928E-03
(PID.TID 0000.0001) %MON dynstat_uvel_del2            =   2.1698682744352E-06
(PID.TID 0000.0001) %MON dynstat_vvel_max             =   3.0498225755851E-02
(PID.TID 0000.0001) %MON dynstat_vvel_min             =  -1.4032055802989E-02
(PID.TID 0000.0001) %MON dynstat_vvel_mean            =   4.0968060850757E-08
(PID.TID 0000.0001) %MON dynstat_vvel_sd              =   6.2949566264806E-04
(PID.TID 0000.0001) %MON dynstat_vvel_del2            =   1.6606489382045E-06
(PID.TID 0000.0001) %MON dynstat_wvel_max             =   1.9320926218077E-03
(PID.TID 0000.0001) %MON dynstat_wvel_min             =  -2.4992406317324E-03
(PID.TID 0000.0001) %MON dynstat_wvel_mean            =   4.2098646890056E-10
(PID.TID 0000.0001) %MON dynstat_wvel_sd              =   3.2145685150310E-05
(PID.TID 0000.0001) %MON dynstat_wvel_del2            =   1.2597560951663E-07
(PID.TID 0000.0001) %MON dynstat_theta_max            =   1.2000000000000E+00
(PID.TID 0000.0001) %MON dynstat_theta_min            =  -1.0000000000000E+00
(PID.TID 0000.0001) %MON dynstat_theta_mean           =   5.6494578867411E-01
(PID.TID 0000.0001) %MON dynstat_theta_sd             =   8.4885653171179E-01
(PID.TID 0000.0001) %MON dynstat_theta_del2           =   4.5947594740699E-06
(PID.TID 0000.0001) %MON dynstat_salt_max             =   3.4700000000000E+01
(PID.TID 0000.0001) %MON dynstat_salt_min             =   3.4000000000000E+01
(PID.TID 0000.0001) %MON dynstat_salt_mean            =   3.4497892393988E+01
(PID.TID 0000.0001) %MON dynstat_salt_sd              =   2.7008135274477E-01
(PID.TID 0000.0001) %MON dynstat_salt_del2            =   1.8194710732805E-06
(PID.TID 0000.0001) %MON advcfl_uvel_max              =   4.9122444326538E-03
(PID.TID 0000.0001) %MON advcfl_vvel_max              =   3.0498225755851E-03
(PID.TID 0000.0001) %MON advcfl_wvel_max              =   1.2496203158662E-02
(PID.TID 0000.0001) %MON advcfl_W_hf_max              =   1.2496203158662E-02
(PID.TID 0000.0001) %MON pe_b_mean                    =  -6.8154262990770E-01
(PID.TID 0000.0001) %MON ke_max                       =   1.1026970879808E-03
(PID.TID 0000.0001) %MON ke_mean                      =   1.1661023174354E-06
(PID.TID 0000.0001) %MON ke_vol                       =   4.6183153273412E+12
(PID.TID 0000.0001) // =======================================================
(PID.TID 0000.0001) // End MONITOR dynamic field statistics
(PID.TID 0000.0001) // =======================================================
(PID.TID 0000.0001) // =======================================================
(PID.TID 0000.0001) // Begin OBCS MONITOR field statistics
(PID.TID 0000.0001) // =======================================================
(PID.TID 0000.0001) %MON obc_N_vVel_max               =  -4.7234795063165E-10
(PID.TID 0000.0001) %MON obc_N_vVel_min               =  -4.7234795063166E-10
(PID.TID 0000.0001) %MON obc_N_vVel_mean              =  -4.7234795063165E-10
(PID.TID 0000.0001) %MON obc_N_vVel_sd                =   1.1123893155136E-16
(PID.TID 0000.0001) %MON obc_N_vVel_Int               =  -3.1174964741689E-02
(PID.TID 0000.0001) // =======================================================
(PID.TID 0000.0001) // End OBCS MONITOR field statistics
(PID.TID 0000.0001) // =======================================================
 cg2d: Sum(rhs),rhsMax =   3.00686796059842E+00  4.53040526348452E+02
(PID.TID 0000.0001)      cg2d_init_res =   5.12855039184923E-06
(PID.TID 0000.0001)      cg2d_iters(min,last) =      -1      77
(PID.TID 0000.0001)      cg2d_last_res =   9.60779224395871E-12
(PID.TID 0000.0001) // =======================================================
(PID.TID 0000.0001) // Begin MONITOR dynamic field statistics
(PID.TID 0000.0001) // =======================================================
(PID.TID 0000.0001) %MON time_tsnumber                =                  1376
(PID.TID 0000.0001) %MON time_secondsf                =   1.3760000000000E+05
(PID.TID 0000.0001) %MON dynstat_eta_max              =   5.7992842263283E+00
(PID.TID 0000.0001) %MON dynstat_eta_min              =  -1.4167662970912E+01
(PID.TID 0000.0001) %MON dynstat_eta_mean             =  -2.5226537843145E+00
(PID.TID 0000.0001) %MON dynstat_eta_sd               =   4.9406695921062E+00
(PID.TID 0000.0001) %MON dynstat_eta_del2             =   1.9059196814719E-01
(PID.TID 0000.0001) %MON dynstat_uvel_max             =   1.0891822961079E-02
(PID.TID 0000.0001) %MON dynstat_uvel_min             =  -4.9222032494796E-02
(PID.TID 0000.0001) %MON dynstat_uvel_mean            =   4.3289146257979E-09
(PID.TID 0000.0001) %MON dynstat_uvel_sd              =   1.4078332030739E-03
(PID.TID 0000.0001) %MON dynstat_uvel_del2            =   2.1749598283376E-06
(PID.TID 0000.0001) %MON dynstat_vvel_max             =   3.0540818074473E-02
(PID.TID 0000.0001) %MON dynstat_vvel_min             =  -1.4070512315632E-02
(PID.TID 0000.0001) %MON dynstat_vvel_mean            =   3.9999037661933E-08
(PID.TID 0000.0001) %MON dynstat_vvel_sd              =   6.3072540331212E-04
(PID.TID 0000.0001) %MON dynstat_vvel_del2            =   1.6636751664656E-06
(PID.TID 0000.0001) %MON dynstat_wvel_max             =   1.9355406344822E-03
(PID.TID 0000.0001) %MON dynstat_wvel_min             =  -2.5038268113592E-03
(PID.TID 0000.0001) %MON dynstat_wvel_mean            =   4.2839959538813E-10
(PID.TID 0000.0001) %MON dynstat_wvel_sd              =   3.2204616971592E-05
(PID.TID 0000.0001) %MON dynstat_wvel_del2            =   1.2616870740917E-07
(PID.TID 0000.0001) %MON dynstat_theta_max            =   1.2000000000000E+00
(PID.TID 0000.0001) %MON dynstat_theta_min            =  -1.0000000000000E+00
(PID.TID 0000.0001) %MON dynstat_theta_mean           =   5.6494476863471E-01
(PID.TID 0000.0001) %MON dynstat_theta_sd             =   8.4885607083912E-01
(PID.TID 0000.0001) %MON dynstat_theta_del2           =   4.6029525457500E-06
(PID.TID 0000.0001) %MON dynstat_salt_max             =   3.4700000000000E+01
(PID.TID 0000.0001) %MON dynstat_salt_min             =   3.4000000000000E+01
(PID.TID 0000.0001) %MON dynstat_salt_mean            =   3.4497891986252E+01
(PID.TID 0000.0001) %MON dynstat_salt_sd              =   2.7008117900728E-01
(PID.TID 0000.0001) %MON dynstat_salt_del2            =   1.8227309001822E-06
(PID.TID 0000.0001) %MON advcfl_uvel_max              =   4.9222032494796E-03
(PID.TID 0000.0001) %MON advcfl_vvel_max              =   3.0540818074473E-03
(PID.TID 0000.0001) %MON advcfl_wvel_max              =   1.2519134056796E-02
(PID.TID 0000.0001) %MON advcfl_W_hf_max              =   1.2519134056796E-02
(PID.TID 0000.0001) %MON pe_b_mean                    =  -6.8153986839386E-01
(PID.TID 0000.0001) %MON ke_max                       =   1.1077048895628E-03
(PID.TID 0000.0001) %MON ke_mean                      =   1.1712694193055E-06
(PID.TID 0000.0001) %MON ke_vol                       =   4.6183153818780E+12
(PID.TID 0000.0001) // =======================================================
(PID.TID 0000.0001) // End MONITOR dynamic field statistics
(PID.TID 0000.0001) // =======================================================
(PID.TID 0000.0001) // =======================================================
(PID.TID 0000.0001) // Begin OBCS MONITOR field statistics
(PID.TID 0000.0001) // =======================================================
(PID.TID 0000.0001) %MON obc_N_vVel_max               =  -2.0429573934683E-09
(PID.TID 0000.0001) %MON obc_N_vVel_min               =  -2.0429573934683E-09
(PID.TID 0000.0001) %MON obc_N_vVel_mean              =  -2.0429573934683E-09
(PID.TID 0000.0001) %MON obc_N_vVel_sd                =  -3.0814879110196E-32
(PID.TID 0000.0001) %MON obc_N_vVel_Int               =  -1.3483518796891E-01
(PID.TID 0000.0001) // =======================================================
(PID.TID 0000.0001) // End OBCS MONITOR field statistics
(PID.TID 0000.0001) // =======================================================
 cg2d: Sum(rhs),rhsMax =   3.00685710647314E+00  4.53040506600249E+02
(PID.TID 0000.0001)      cg2d_init_res =   5.13676342159466E-06
(PID.TID 0000.0001)      cg2d_iters(min,last) =      -1      77
(PID.TID 0000.0001)      cg2d_last_res =   9.62828731279661E-12
(PID.TID 0000.0001) // =======================================================
(PID.TID 0000.0001) // Begin MONITOR dynamic field statistics
(PID.TID 0000.0001) // =======================================================
(PID.TID 0000.0001) %MON time_tsnumber                =                  1377
(PID.TID 0000.0001) %MON time_secondsf                =   1.3770000000000E+05
(PID.TID 0000.0001) %MON dynstat_eta_max              =   5.7992872636151E+00
(PID.TID 0000.0001) %MON dynstat_eta_min              =  -1.4167642931478E+01
(PID.TID 0000.0001) %MON dynstat_eta_mean             =  -2.5226445681318E+00
(PID.TID 0000.0001) %MON dynstat_eta_sd               =   4.9406669464275E+00
(PID.TID 0000.0001) %MON dynstat_eta_del2             =   1.9059199603421E-01
(PID.TID 0000.0001) %MON dynstat_uvel_max             =   1.0914390063526E-02
(PID.TID 0000.0001) %MON dynstat_uvel_min             =  -4.9321755580023E-02
(PID.TID 0000.0001) %MON dynstat_uvel_mean            =   4.3061075233628E-09
(PID.TID 0000.0001) %MON dynstat_uvel_sd              =   1.4110222745872E-03
(PID.TID 0000.0001) %MON dynstat_uvel_del2            =   2.1800620599908E-06
(PID.TID 0000.0001) %MON dynstat_vvel_max             =   3.0583417050435E-02
(PID.TID 0000.0001) %MON dynstat_vvel_min             =  -1.4109039262499E-02
(PID.TID 0000.0001) %MON dynstat_vvel_mean            =   3.9953157647318E-08
(PID.TID 0000.0001) %MON dynstat_vvel_sd              =   6.3195707115754E-04
(PID.TID 0000.0001) %MON dynstat_vvel_del2            =   1.6667049003537E-06
(PID.TID 0000.0001) %MON dynstat_wvel_max             =   1.9389907989057E-03
(PID.TID 0000.0001) %MON dynstat_wvel_min             =  -2.5084061365582E-03
(PID.TID 0000.0001) %MON dynstat_wvel_mean            =   4.3578087933965E-10
(PID.TID 0000.0001) %MON dynstat_wvel_sd              =   3.2263495342268E-05
(PID.TID 0000.0001) %MON dynstat_wvel_del2            =   1.2636186567663E-07
(PID.TID 0000.0001) %MON dynstat_theta_max            =   1.2000000000000E+00
(PID.TID 0000.0001) %MON dynstat_theta_min            =  -1.0000000000000E+00
(PID.TID 0000.0001) %MON dynstat_theta_mean           =   5.6494374676573E-01
(PID.TID 0000.0001) %MON dynstat_theta_sd             =   8.4885560922613E-01
(PID.TID 0000.0001) %MON dynstat_theta_del2           =   4.6111552063619E-06
(PID.TID 0000.0001) %MON dynstat_salt_max             =   3.4700000000000E+01
(PID.TID 0000.0001) %MON dynstat_salt_min             =   3.4000000000000E+01
(PID.TID 0000.0001) %MON dynstat_salt_mean            =   3.4497891577786E+01
(PID.TID 0000.0001) %MON dynstat_salt_sd              =   2.7008100499570E-01
(PID.TID 0000.0001) %MON dynstat_salt_del2            =   1.8259944055689E-06
(PID.TID 0000.0001) %MON advcfl_uvel_max              =   4.9321755580023E-03
(PID.TID 0000.0001) %MON advcfl_vvel_max              =   3.0583417050435E-03
(PID.TID 0000.0001) %MON advcfl_wvel_max              =   1.2542030682791E-02
(PID.TID 0000.0001) %MON advcfl_W_hf_max              =   1.2542030682791E-02
(PID.TID 0000.0001) %MON pe_b_mean                    =  -6.8153710197207E-01
(PID.TID 0000.0001) %MON ke_max                       =   1.1127315835430E-03
(PID.TID 0000.0001) %MON ke_mean                      =   1.1764572712723E-06
(PID.TID 0000.0001) %MON ke_vol                       =   4.6183154365212E+12
(PID.TID 0000.0001) // =======================================================
(PID.TID 0000.0001) // End MONITOR dynamic field statistics
(PID.TID 0000.0001) // =======================================================
(PID.TID 0000.0001) // =======================================================
(PID.TID 0000.0001) // Begin OBCS MONITOR field statistics
(PID.TID 0000.0001) // =======================================================
(PID.TID 0000.0001) %MON obc_N_vVel_max               =  -2.7436571812198E-09
(PID.TID 0000.0001) %MON obc_N_vVel_min               =  -2.7436571812198E-09
(PID.TID 0000.0001) %MON obc_N_vVel_mean              =  -2.7436571812198E-09
(PID.TID 0000.0001) %MON obc_N_vVel_sd                =  -5.7161600749413E-31
(PID.TID 0000.0001) %MON obc_N_vVel_Int               =  -1.8108137396051E-01
(PID.TID 0000.0001) // =======================================================
(PID.TID 0000.0001) // End OBCS MONITOR field statistics
(PID.TID 0000.0001) // =======================================================
 cg2d: Sum(rhs),rhsMax =   3.00684623283249E+00  4.53040486911890E+02
(PID.TID 0000.0001)      cg2d_init_res =   5.14492391362021E-06
(PID.TID 0000.0001)      cg2d_iters(min,last) =      -1      77
(PID.TID 0000.0001)      cg2d_last_res =   9.64863489362595E-12
(PID.TID 0000.0001) // =======================================================
(PID.TID 0000.0001) // Begin MONITOR dynamic field statistics
(PID.TID 0000.0001) // =======================================================
(PID.TID 0000.0001) %MON time_tsnumber                =                  1378
(PID.TID 0000.0001) %MON time_secondsf                =   1.3780000000000E+05
(PID.TID 0000.0001) %MON dynstat_eta_max              =   5.7992903027716E+00
(PID.TID 0000.0001) %MON dynstat_eta_min              =  -1.4167622850307E+01
(PID.TID 0000.0001) %MON dynstat_eta_mean             =  -2.5226353359104E+00
(PID.TID 0000.0001) %MON dynstat_eta_sd               =   4.9406642968762E+00
(PID.TID 0000.0001) %MON dynstat_eta_del2             =   1.9059202397161E-01
(PID.TID 0000.0001) %MON dynstat_uvel_max             =   1.0936972297415E-02
(PID.TID 0000.0001) %MON dynstat_uvel_min             =  -4.9421613789647E-02
(PID.TID 0000.0001) %MON dynstat_uvel_mean            =   4.2830930930676E-09
(PID.TID 0000.0001) %MON dynstat_uvel_sd              =   1.4142171813757E-03
(PID.TID 0000.0001) %MON dynstat_uvel_del2            =   2.1851749835910E-06
(PID.TID 0000.0001) %MON dynstat_vvel_max             =   3.0626022678258E-02
(PID.TID 0000.0001) %MON dynstat_vvel_min             =  -1.4147636744179E-02
(PID.TID 0000.0001) %MON dynstat_vvel_mean            =   4.0830994872407E-08
(PID.TID 0000.0001) %MON dynstat_vvel_sd              =   6.3319070925663E-04
(PID.TID 0000.0001) %MON dynstat_vvel_del2            =   1.6697382367394E-06
(PID.TID 0000.0001) %MON dynstat_wvel_max             =   1.9424431174951E-03
(PID.TID 0000.0001) %MON dynstat_wvel_min             =  -2.5129784895656E-03
(PID.TID 0000.0001) %MON dynstat_wvel_mean            =   4.4299931463125E-10
(PID.TID 0000.0001) %MON dynstat_wvel_sd              =   3.2322427959542E-05
(PID.TID 0000.0001) %MON dynstat_wvel_del2            =   1.2655570180491E-07
(PID.TID 0000.0001) %MON dynstat_theta_max            =   1.2000000000000E+00
(PID.TID 0000.0001) %MON dynstat_theta_min            =  -1.0000000000000E+00
(PID.TID 0000.0001) %MON dynstat_theta_mean           =   5.6494272306501E-01
(PID.TID 0000.0001) %MON dynstat_theta_sd             =   8.4885514687252E-01
(PID.TID 0000.0001) %MON dynstat_theta_del2           =   4.6193691988089E-06
(PID.TID 0000.0001) %MON dynstat_salt_max             =   3.4700000000000E+01
(PID.TID 0000.0001) %MON dynstat_salt_min             =   3.4000000000000E+01
(PID.TID 0000.0001) %MON dynstat_salt_mean            =   3.4497891168589E+01
(PID.TID 0000.0001) %MON dynstat_salt_sd              =   2.7008083070979E-01
(PID.TID 0000.0001) %MON dynstat_salt_del2            =   1.8292614800312E-06
(PID.TID 0000.0001) %MON advcfl_uvel_max              =   4.9421613789647E-03
(PID.TID 0000.0001) %MON advcfl_vvel_max              =   3.0626022678258E-03
(PID.TID 0000.0001) %MON advcfl_wvel_max              =   1.2564892447828E-02
(PID.TID 0000.0001) %MON advcfl_W_hf_max              =   1.2564892447828E-02
(PID.TID 0000.0001) %MON pe_b_mean                    =  -6.8153433083109E-01
(PID.TID 0000.0001) %MON ke_max                       =   1.1177772221781E-03
(PID.TID 0000.0001) %MON ke_mean                      =   1.1816659639437E-06
(PID.TID 0000.0001) %MON ke_vol                       =   4.6183154912653E+12
(PID.TID 0000.0001) // =======================================================
(PID.TID 0000.0001) // End MONITOR dynamic field statistics
(PID.TID 0000.0001) // =======================================================
(PID.TID 0000.0001) // =======================================================
(PID.TID 0000.0001) // Begin OBCS MONITOR field statistics
(PID.TID 0000.0001) // =======================================================
(PID.TID 0000.0001) %MON obc_N_vVel_max               =  -2.5622052949794E-09
(PID.TID 0000.0001) %MON obc_N_vVel_min               =  -2.5622052949794E-09
(PID.TID 0000.0001) %MON obc_N_vVel_mean              =  -2.5622052949794E-09
(PID.TID 0000.0001) %MON obc_N_vVel_sd                =   4.7428748402675E-16
(PID.TID 0000.0001) %MON obc_N_vVel_Int               =  -1.6910554946864E-01
(PID.TID 0000.0001) // =======================================================
(PID.TID 0000.0001) // End OBCS MONITOR field statistics
(PID.TID 0000.0001) // =======================================================
 cg2d: Sum(rhs),rhsMax =   3.00683534074794E+00  4.53040467291895E+02
(PID.TID 0000.0001)      cg2d_init_res =   5.15299448383847E-06
(PID.TID 0000.0001)      cg2d_iters(min,last) =      -1      77
(PID.TID 0000.0001)      cg2d_last_res =   9.66860620797827E-12
(PID.TID 0000.0001) // =======================================================
(PID.TID 0000.0001) // Begin MONITOR dynamic field statistics
(PID.TID 0000.0001) // =======================================================
(PID.TID 0000.0001) %MON time_tsnumber                =                  1379
(PID.TID 0000.0001) %MON time_secondsf                =   1.3790000000000E+05
(PID.TID 0000.0001) %MON dynstat_eta_max              =   5.7992933422355E+00
(PID.TID 0000.0001) %MON dynstat_eta_min              =  -1.4167602729094E+01
(PID.TID 0000.0001) %MON dynstat_eta_mean             =  -2.5226260885967E+00
(PID.TID 0000.0001) %MON dynstat_eta_sd               =   4.9406616437367E+00
(PID.TID 0000.0001) %MON dynstat_eta_del2             =   1.9059205195946E-01
(PID.TID 0000.0001) %MON dynstat_uvel_max             =   1.0959569436511E-02
(PID.TID 0000.0001) %MON dynstat_uvel_min             =  -4.9521607324978E-02
(PID.TID 0000.0001) %MON dynstat_uvel_mean            =   4.2606228376578E-09
(PID.TID 0000.0001) %MON dynstat_uvel_sd              =   1.4174179241800E-03
(PID.TID 0000.0001) %MON dynstat_uvel_del2            =   2.1902986120113E-06
(PID.TID 0000.0001) %MON dynstat_vvel_max             =   3.0668634928410E-02
(PID.TID 0000.0001) %MON dynstat_vvel_min             =  -1.4186304850268E-02
(PID.TID 0000.0001) %MON dynstat_vvel_mean            =   4.2615104577900E-08
(PID.TID 0000.0001) %MON dynstat_vvel_sd              =   6.3442636044481E-04
(PID.TID 0000.0001) %MON dynstat_vvel_del2            =   1.6727752481415E-06
(PID.TID 0000.0001) %MON dynstat_wvel_max             =   1.9458975832281E-03
(PID.TID 0000.0001) %MON dynstat_wvel_min             =  -2.5175437520789E-03
(PID.TID 0000.0001) %MON dynstat_wvel_mean            =   4.4992845578111E-10
(PID.TID 0000.0001) %MON dynstat_wvel_sd              =   3.2381507903236E-05
(PID.TID 0000.0001) %MON dynstat_wvel_del2            =   1.2675073279234E-07
(PID.TID 0000.0001) %MON dynstat_theta_max            =   1.2000000000000E+00
(PID.TID 0000.0001) %MON dynstat_theta_min            =  -1.0000000000000E+00
(PID.TID 0000.0001) %MON dynstat_theta_mean           =   5.6494169753064E-01
(PID.TID 0000.0001) %MON dynstat_theta_sd             =   8.4885468377620E-01
(PID.TID 0000.0001) %MON dynstat_theta_del2           =   4.6275925852674E-06
(PID.TID 0000.0001) %MON dynstat_salt_max             =   3.4700000000000E+01
(PID.TID 0000.0001) %MON dynstat_salt_min             =   3.4000000000000E+01
(PID.TID 0000.0001) %MON dynstat_salt_mean            =   3.4497890758662E+01
(PID.TID 0000.0001) %MON dynstat_salt_sd              =   2.7008065614945E-01
(PID.TID 0000.0001) %MON dynstat_salt_del2            =   1.8325322748915E-06
(PID.TID 0000.0001) %MON advcfl_uvel_max              =   4.9521607324978E-03
(PID.TID 0000.0001) %MON advcfl_vvel_max              =   3.0668634928410E-03
(PID.TID 0000.0001) %MON advcfl_wvel_max              =   1.2587718760394E-02
(PID.TID 0000.0001) %MON advcfl_W_hf_max              =   1.2587718760394E-02
(PID.TID 0000.0001) %MON pe_b_mean                    =  -6.8153155515525E-01
(PID.TID 0000.0001) %MON ke_max                       =   1.1228418576893E-03
(PID.TID 0000.0001) %MON ke_mean                      =   1.1868955876964E-06
(PID.TID 0000.0001) %MON ke_vol                       =   4.6183155461047E+12
(PID.TID 0000.0001) // =======================================================
(PID.TID 0000.0001) // End MONITOR dynamic field statistics
(PID.TID 0000.0001) // =======================================================
(PID.TID 0000.0001) // =======================================================
(PID.TID 0000.0001) // Begin OBCS MONITOR field statistics
(PID.TID 0000.0001) // =======================================================
(PID.TID 0000.0001) %MON obc_N_vVel_max               =  -1.5036638971003E-09
(PID.TID 0000.0001) %MON obc_N_vVel_min               =  -1.5036638971003E-09
(PID.TID 0000.0001) %MON obc_N_vVel_mean              =  -1.5036638971003E-09
(PID.TID 0000.0001) %MON obc_N_vVel_sd                =   1.8306059388175E-16
(PID.TID 0000.0001) %MON obc_N_vVel_Int               =  -9.9241817208622E-02
(PID.TID 0000.0001) // =======================================================
(PID.TID 0000.0001) // End OBCS MONITOR field statistics
(PID.TID 0000.0001) // =======================================================
 cg2d: Sum(rhs),rhsMax =   3.00682443127749E+00  4.53040447746524E+02
(PID.TID 0000.0001)      cg2d_init_res =   5.16114109250708E-06
(PID.TID 0000.0001)      cg2d_iters(min,last) =      -1      77
(PID.TID 0000.0001)      cg2d_last_res =   9.68862152514328E-12
(PID.TID 0000.0001) // =======================================================
(PID.TID 0000.0001) // Begin MONITOR dynamic field statistics
(PID.TID 0000.0001) // =======================================================
(PID.TID 0000.0001) %MON time_tsnumber                =                  1380
(PID.TID 0000.0001) %MON time_secondsf                =   1.3800000000000E+05
(PID.TID 0000.0001) %MON dynstat_eta_max              =   5.7992963805099E+00
(PID.TID 0000.0001) %MON dynstat_eta_min              =  -1.4167582569470E+01
(PID.TID 0000.0001) %MON dynstat_eta_mean             =  -2.5226168271132E+00
(PID.TID 0000.0001) %MON dynstat_eta_sd               =   4.9406589872795E+00
(PID.TID 0000.0001) %MON dynstat_eta_del2             =   1.9059207999851E-01
(PID.TID 0000.0001) %MON dynstat_uvel_max             =   1.0982181258026E-02
(PID.TID 0000.0001) %MON dynstat_uvel_min             =  -4.9621736390367E-02
(PID.TID 0000.0001) %MON dynstat_uvel_mean            =   4.2394720929884E-09
(PID.TID 0000.0001) %MON dynstat_uvel_sd              =   1.4206245039121E-03
(PID.TID 0000.0001) %MON dynstat_uvel_del2            =   2.1954329595995E-06
(PID.TID 0000.0001) %MON dynstat_vvel_max             =   3.0711253767081E-02
(PID.TID 0000.0001) %MON dynstat_vvel_min             =  -1.4225043688615E-02
(PID.TID 0000.0001) %MON dynstat_vvel_mean            =   4.5270463563685E-08
(PID.TID 0000.0001) %MON dynstat_vvel_sd              =   6.3566406531391E-04
(PID.TID 0000.0001) %MON dynstat_vvel_del2            =   1.6758159753177E-06
(PID.TID 0000.0001) %MON dynstat_wvel_max             =   1.9493541881282E-03
(PID.TID 0000.0001) %MON dynstat_wvel_min             =  -2.5221018051372E-03
(PID.TID 0000.0001) %MON dynstat_wvel_mean            =   4.5644714089441E-10
(PID.TID 0000.0001) %MON dynstat_wvel_sd              =   3.2440808580049E-05
(PID.TID 0000.0001) %MON dynstat_wvel_del2            =   1.2694734077990E-07
(PID.TID 0000.0001) %MON dynstat_theta_max            =   1.2000000000000E+00
(PID.TID 0000.0001) %MON dynstat_theta_min            =  -1.0000000000000E+00
(PID.TID 0000.0001) %MON dynstat_theta_mean           =   5.6494067016084E-01
(PID.TID 0000.0001) %MON dynstat_theta_sd             =   8.4885421993624E-01
(PID.TID 0000.0001) %MON dynstat_theta_del2           =   4.6358250586708E-06
(PID.TID 0000.0001) %MON dynstat_salt_max             =   3.4700000000000E+01
(PID.TID 0000.0001) %MON dynstat_salt_min             =   3.4000000000000E+01
(PID.TID 0000.0001) %MON dynstat_salt_mean            =   3.4497890348001E+01
(PID.TID 0000.0001) %MON dynstat_salt_sd              =   2.7008048131407E-01
(PID.TID 0000.0001) %MON dynstat_salt_del2            =   1.8358067556763E-06
(PID.TID 0000.0001) %MON advcfl_uvel_max              =   4.9621736390367E-03
(PID.TID 0000.0001) %MON advcfl_vvel_max              =   3.0711253767081E-03
(PID.TID 0000.0001) %MON advcfl_wvel_max              =   1.2610509025686E-02
(PID.TID 0000.0001) %MON advcfl_W_hf_max              =   1.2610509025686E-02
(PID.TID 0000.0001) %MON pe_b_mean                    =  -6.8152877512053E-01
(PID.TID 0000.0001) %MON ke_max                       =   1.1279255429156E-03
(PID.TID 0000.0001) %MON ke_mean                      =   1.1921462320543E-06
(PID.TID 0000.0001) %MON ke_vol                       =   4.6183156010337E+12
(PID.TID 0000.0001) // =======================================================
(PID.TID 0000.0001) // End MONITOR dynamic field statistics
(PID.TID 0000.0001) // =======================================================
(PID.TID 0000.0001) // =======================================================
(PID.TID 0000.0001) // Begin OBCS MONITOR field statistics
(PID.TID 0000.0001) // =======================================================
(PID.TID 0000.0001) %MON obc_N_vVel_max               =   4.0981021189167E-10
(PID.TID 0000.0001) %MON obc_N_vVel_min               =   4.0981021189167E-10
(PID.TID 0000.0001) %MON obc_N_vVel_mean              =   4.0981021189167E-10
(PID.TID 0000.0001) %MON obc_N_vVel_sd                =   2.3013707539345E-17
(PID.TID 0000.0001) %MON obc_N_vVel_Int               =   2.7047473984851E-02
(PID.TID 0000.0001) // =======================================================
(PID.TID 0000.0001) // End OBCS MONITOR field statistics
(PID.TID 0000.0001) // =======================================================
 cg2d: Sum(rhs),rhsMax =   3.00681350544209E+00  4.53040428279783E+02
(PID.TID 0000.0001)      cg2d_init_res =   5.16929422216993E-06
(PID.TID 0000.0001)      cg2d_iters(min,last) =      -1      77
(PID.TID 0000.0001)      cg2d_last_res =   9.70851132298190E-12
(PID.TID 0000.0001) // =======================================================
(PID.TID 0000.0001) // Begin MONITOR dynamic field statistics
(PID.TID 0000.0001) // =======================================================
(PID.TID 0000.0001) %MON time_tsnumber                =                  1381
(PID.TID 0000.0001) %MON time_secondsf                =   1.3810000000000E+05
(PID.TID 0000.0001) %MON dynstat_eta_max              =   5.7992994161934E+00
(PID.TID 0000.0001) %MON dynstat_eta_min              =  -1.4167562372943E+01
(PID.TID 0000.0001) %MON dynstat_eta_mean             =  -2.5226075523387E+00
(PID.TID 0000.0001) %MON dynstat_eta_sd               =   4.9406563277402E+00
(PID.TID 0000.0001) %MON dynstat_eta_del2             =   1.9059210808907E-01
(PID.TID 0000.0001) %MON dynstat_uvel_max             =   1.1004807534388E-02
(PID.TID 0000.0001) %MON dynstat_uvel_min             =  -4.9722001179033E-02
(PID.TID 0000.0001) %MON dynstat_uvel_mean            =   4.2203511065034E-09
(PID.TID 0000.0001) %MON dynstat_uvel_sd              =   1.4238369215045E-03
(PID.TID 0000.0001) %MON dynstat_uvel_del2            =   2.2005780408229E-06
(PID.TID 0000.0001) %MON dynstat_vvel_max             =   3.0753879159967E-02
(PID.TID 0000.0001) %MON dynstat_vvel_min             =  -1.4263853357489E-02
(PID.TID 0000.0001) %MON dynstat_vvel_mean            =   4.8745318984348E-08
(PID.TID 0000.0001) %MON dynstat_vvel_sd              =   6.3690386145898E-04
(PID.TID 0000.0001) %MON dynstat_vvel_del2            =   1.6788604236598E-06
(PID.TID 0000.0001) %MON dynstat_wvel_max             =   1.9528129241126E-03
(PID.TID 0000.0001) %MON dynstat_wvel_min             =  -2.5266525293707E-03
(PID.TID 0000.0001) %MON dynstat_wvel_mean            =   4.6244421871792E-10
(PID.TID 0000.0001) %MON dynstat_wvel_sd              =   3.2500380427904E-05
(PID.TID 0000.0001) %MON dynstat_wvel_del2            =   1.2714574488392E-07
(PID.TID 0000.0001) %MON dynstat_theta_max            =   1.2000000000000E+00
(PID.TID 0000.0001) %MON dynstat_theta_min            =  -1.0000000000000E+00
(PID.TID 0000.0001) %MON dynstat_theta_mean           =   5.6493964095386E-01
(PID.TID 0000.0001) %MON dynstat_theta_sd             =   8.4885375535070E-01
(PID.TID 0000.0001) %MON dynstat_theta_del2           =   4.6440665393772E-06
(PID.TID 0000.0001) %MON dynstat_salt_max             =   3.4700000000000E+01
(PID.TID 0000.0001) %MON dynstat_salt_min             =   3.4000000000000E+01
(PID.TID 0000.0001) %MON dynstat_salt_mean            =   3.4497889936608E+01
(PID.TID 0000.0001) %MON dynstat_salt_sd              =   2.7008030620336E-01
(PID.TID 0000.0001) %MON dynstat_salt_del2            =   1.8390848993001E-06
(PID.TID 0000.0001) %MON advcfl_uvel_max              =   4.9722001179033E-03
(PID.TID 0000.0001) %MON advcfl_vvel_max              =   3.0753879159967E-03
(PID.TID 0000.0001) %MON advcfl_wvel_max              =   1.2633262646853E-02
(PID.TID 0000.0001) %MON advcfl_W_hf_max              =   1.2633262646853E-02
(PID.TID 0000.0001) %MON pe_b_mean                    =  -6.8152599089064E-01
(PID.TID 0000.0001) %MON ke_max                       =   1.1330283303519E-03
(PID.TID 0000.0001) %MON ke_mean                      =   1.1974179849877E-06
(PID.TID 0000.0001) %MON ke_vol                       =   4.6183156560469E+12
(PID.TID 0000.0001) // =======================================================
(PID.TID 0000.0001) // End MONITOR dynamic field statistics
(PID.TID 0000.0001) // =======================================================
(PID.TID 0000.0001) // =======================================================
(PID.TID 0000.0001) // Begin OBCS MONITOR field statistics
(PID.TID 0000.0001) // =======================================================
(PID.TID 0000.0001) %MON obc_N_vVel_max               =   3.1395613934335E-09
(PID.TID 0000.0001) %MON obc_N_vVel_min               =   3.1395613934334E-09
(PID.TID 0000.0001) %MON obc_N_vVel_mean              =   3.1395613934335E-09
(PID.TID 0000.0001) %MON obc_N_vVel_sd                =  -8.0272760082060E-31
(PID.TID 0000.0001) %MON obc_N_vVel_Int               =   2.0721105196661E-01
(PID.TID 0000.0001) // =======================================================
(PID.TID 0000.0001) // End OBCS MONITOR field statistics
(PID.TID 0000.0001) // =======================================================
 cg2d: Sum(rhs),rhsMax =   3.00680256420750E+00  4.53040408893154E+02
(PID.TID 0000.0001)      cg2d_init_res =   5.17745919257443E-06
(PID.TID 0000.0001)      cg2d_iters(min,last) =      -1      77
(PID.TID 0000.0001)      cg2d_last_res =   9.72826570027472E-12
(PID.TID 0000.0001) // =======================================================
(PID.TID 0000.0001) // Begin MONITOR dynamic field statistics
(PID.TID 0000.0001) // =======================================================
(PID.TID 0000.0001) %MON time_tsnumber                =                  1382
(PID.TID 0000.0001) %MON time_secondsf                =   1.3820000000000E+05
(PID.TID 0000.0001) %MON dynstat_eta_max              =   5.7993024480039E+00
(PID.TID 0000.0001) %MON dynstat_eta_min              =  -1.4167542140890E+01
(PID.TID 0000.0001) %MON dynstat_eta_mean             =  -2.5225982650918E+00
(PID.TID 0000.0001) %MON dynstat_eta_sd               =   4.9406536653224E+00
(PID.TID 0000.0001) %MON dynstat_eta_del2             =   1.9059213623138E-01
(PID.TID 0000.0001) %MON dynstat_uvel_max             =   1.1027448035961E-02
(PID.TID 0000.0001) %MON dynstat_uvel_min             =  -4.9822401881567E-02
(PID.TID 0000.0001) %MON dynstat_uvel_mean            =   4.2039313647364E-09
(PID.TID 0000.0001) %MON dynstat_uvel_sd              =   1.4270551778729E-03
(PID.TID 0000.0001) %MON dynstat_uvel_del2            =   2.2057338701212E-06
(PID.TID 0000.0001) %MON dynstat_vvel_max             =   3.0796511071172E-02
(PID.TID 0000.0001) %MON dynstat_vvel_min             =  -1.4302733957015E-02
(PID.TID 0000.0001) %MON dynstat_vvel_mean            =   5.2972330309546E-08
(PID.TID 0000.0001) %MON dynstat_vvel_sd              =   6.3814578294218E-04
(PID.TID 0000.0001) %MON dynstat_vvel_del2            =   1.6819085630580E-06
(PID.TID 0000.0001) %MON dynstat_wvel_max             =   1.9562737829338E-03
(PID.TID 0000.0001) %MON dynstat_wvel_min             =  -2.5311958045856E-03
(PID.TID 0000.0001) %MON dynstat_wvel_mean            =   4.6781945947044E-10
(PID.TID 0000.0001) %MON dynstat_wvel_sd              =   3.2560249676962E-05
(PID.TID 0000.0001) %MON dynstat_wvel_del2            =   1.2734598951350E-07
(PID.TID 0000.0001) %MON dynstat_theta_max            =   1.2000000000000E+00
(PID.TID 0000.0001) %MON dynstat_theta_min            =  -1.0000000000000E+00
(PID.TID 0000.0001) %MON dynstat_theta_mean           =   5.6493860990797E-01
(PID.TID 0000.0001) %MON dynstat_theta_sd             =   8.4885329001845E-01
(PID.TID 0000.0001) %MON dynstat_theta_del2           =   4.6523170050252E-06
(PID.TID 0000.0001) %MON dynstat_salt_max             =   3.4700000000000E+01
(PID.TID 0000.0001) %MON dynstat_salt_min             =   3.4000000000000E+01
(PID.TID 0000.0001) %MON dynstat_salt_mean            =   3.4497889524480E+01
(PID.TID 0000.0001) %MON dynstat_salt_sd              =   2.7008013081674E-01
(PID.TID 0000.0001) %MON dynstat_salt_del2            =   1.8423666983419E-06
(PID.TID 0000.0001) %MON advcfl_uvel_max              =   4.9822401881567E-03
(PID.TID 0000.0001) %MON advcfl_vvel_max              =   3.0796511071172E-03
(PID.TID 0000.0001) %MON advcfl_wvel_max              =   1.2655979022928E-02
(PID.TID 0000.0001) %MON advcfl_W_hf_max              =   1.2655979022928E-02
(PID.TID 0000.0001) %MON pe_b_mean                    =  -6.8152320261408E-01
(PID.TID 0000.0001) %MON ke_max                       =   1.1381502727438E-03
(PID.TID 0000.0001) %MON ke_mean                      =   1.2027109325012E-06
(PID.TID 0000.0001) %MON ke_vol                       =   4.6183157111391E+12
(PID.TID 0000.0001) // =======================================================
(PID.TID 0000.0001) // End MONITOR dynamic field statistics
(PID.TID 0000.0001) // =======================================================
(PID.TID 0000.0001) // =======================================================
(PID.TID 0000.0001) // Begin OBCS MONITOR field statistics
(PID.TID 0000.0001) // =======================================================
(PID.TID 0000.0001) %MON obc_N_vVel_max               =   6.6313001660274E-09
(PID.TID 0000.0001) %MON obc_N_vVel_min               =   6.6313001660271E-09
(PID.TID 0000.0001) %MON obc_N_vVel_mean              =   6.6313001660271E-09
(PID.TID 0000.0001) %MON obc_N_vVel_sd                =   2.1995308636845E-15
(PID.TID 0000.0001) %MON obc_N_vVel_Int               =   4.3766581095779E-01
(PID.TID 0000.0001) // =======================================================
(PID.TID 0000.0001) // End OBCS MONITOR field statistics
(PID.TID 0000.0001) // =======================================================
 cg2d: Sum(rhs),rhsMax =   3.00679160846461E+00  4.53040389585577E+02
(PID.TID 0000.0001)      cg2d_init_res =   5.18564359989727E-06
(PID.TID 0000.0001)      cg2d_iters(min,last) =      -1      77
(PID.TID 0000.0001)      cg2d_last_res =   9.74789181973014E-12
(PID.TID 0000.0001) // =======================================================
(PID.TID 0000.0001) // Begin MONITOR dynamic field statistics
(PID.TID 0000.0001) // =======================================================
(PID.TID 0000.0001) %MON time_tsnumber                =                  1383
(PID.TID 0000.0001) %MON time_secondsf                =   1.3830000000000E+05
(PID.TID 0000.0001) %MON dynstat_eta_max              =   5.7993054748093E+00
(PID.TID 0000.0001) %MON dynstat_eta_min              =  -1.4167521874499E+01
(PID.TID 0000.0001) %MON dynstat_eta_mean             =  -2.5225889661138E+00
(PID.TID 0000.0001) %MON dynstat_eta_sd               =   4.9406510001910E+00
(PID.TID 0000.0001) %MON dynstat_eta_del2             =   1.9059216442549E-01
(PID.TID 0000.0001) %MON dynstat_uvel_max             =   1.1050102531684E-02
(PID.TID 0000.0001) %MON dynstat_uvel_min             =  -4.9922938684530E-02
(PID.TID 0000.0001) %MON dynstat_uvel_mean            =   4.1908365557113E-09
(PID.TID 0000.0001) %MON dynstat_uvel_sd              =   1.4302792739302E-03
(PID.TID 0000.0001) %MON dynstat_uvel_del2            =   2.2109004619218E-06
(PID.TID 0000.0001) %MON dynstat_vvel_max             =   3.0839149463244E-02
(PID.TID 0000.0001) %MON dynstat_vvel_min             =  -1.4341685587413E-02
(PID.TID 0000.0001) %MON dynstat_vvel_mean            =   5.7870010099473E-08
(PID.TID 0000.0001) %MON dynstat_vvel_sd              =   6.3938985998635E-04
(PID.TID 0000.0001) %MON dynstat_vvel_del2            =   1.6849603303945E-06
(PID.TID 0000.0001) %MON dynstat_wvel_max             =   1.9597367562218E-03
(PID.TID 0000.0001) %MON dynstat_wvel_min             =  -2.5357315102243E-03
(PID.TID 0000.0001) %MON dynstat_wvel_mean            =   4.7248529313254E-10
(PID.TID 0000.0001) %MON dynstat_wvel_sd              =   3.2620419130813E-05
(PID.TID 0000.0001) %MON dynstat_wvel_del2            =   1.2754794625617E-07
(PID.TID 0000.0001) %MON dynstat_theta_max            =   1.2000000000000E+00
(PID.TID 0000.0001) %MON dynstat_theta_min            =  -1.0000000000000E+00
(PID.TID 0000.0001) %MON dynstat_theta_mean           =   5.6493757702142E-01
(PID.TID 0000.0001) %MON dynstat_theta_sd             =   8.4885282393755E-01
(PID.TID 0000.0001) %MON dynstat_theta_del2           =   4.6605764846136E-06
(PID.TID 0000.0001) %MON dynstat_salt_max             =   3.4700000000000E+01
(PID.TID 0000.0001) %MON dynstat_salt_min             =   3.4000000000000E+01
(PID.TID 0000.0001) %MON dynstat_salt_mean            =   3.4497889111618E+01
(PID.TID 0000.0001) %MON dynstat_salt_sd              =   2.7007995515385E-01
(PID.TID 0000.0001) %MON dynstat_salt_del2            =   1.8456521610591E-06
(PID.TID 0000.0001) %MON advcfl_uvel_max              =   4.9922938684530E-03
(PID.TID 0000.0001) %MON advcfl_vvel_max              =   3.0839149463244E-03
(PID.TID 0000.0001) %MON advcfl_wvel_max              =   1.2678657551122E-02
(PID.TID 0000.0001) %MON advcfl_W_hf_max              =   1.2678657551122E-02
(PID.TID 0000.0001) %MON pe_b_mean                    =  -6.8152041042095E-01
(PID.TID 0000.0001) %MON ke_max                       =   1.1432914229883E-03
(PID.TID 0000.0001) %MON ke_mean                      =   1.2080251584350E-06
(PID.TID 0000.0001) %MON ke_vol                       =   4.6183157663054E+12
(PID.TID 0000.0001) // =======================================================
(PID.TID 0000.0001) // End MONITOR dynamic field statistics
(PID.TID 0000.0001) // =======================================================
(PID.TID 0000.0001) // =======================================================
(PID.TID 0000.0001) // Begin OBCS MONITOR field statistics
(PID.TID 0000.0001) // =======================================================
(PID.TID 0000.0001) %MON obc_N_vVel_max               =   1.0816314150300E-08
(PID.TID 0000.0001) %MON obc_N_vVel_min               =   1.0816314150300E-08
(PID.TID 0000.0001) %MON obc_N_vVel_mean              =   1.0816314150300E-08
(PID.TID 0000.0001) %MON obc_N_vVel_sd                =   2.9457545650361E-15
(PID.TID 0000.0001) %MON obc_N_vVel_Int               =   7.1387673391980E-01
(PID.TID 0000.0001) // =======================================================
(PID.TID 0000.0001) // End OBCS MONITOR field statistics
(PID.TID 0000.0001) // =======================================================
 cg2d: Sum(rhs),rhsMax =   3.00678063901452E+00  4.53040370353487E+02
(PID.TID 0000.0001)      cg2d_init_res =   5.19385456618231E-06
(PID.TID 0000.0001)      cg2d_iters(min,last) =      -1      77
(PID.TID 0000.0001)      cg2d_last_res =   9.76740615003893E-12
(PID.TID 0000.0001) // =======================================================
(PID.TID 0000.0001) // Begin MONITOR dynamic field statistics
(PID.TID 0000.0001) // =======================================================
(PID.TID 0000.0001) %MON time_tsnumber                =                  1384
(PID.TID 0000.0001) %MON time_secondsf                =   1.3840000000000E+05
(PID.TID 0000.0001) %MON dynstat_eta_max              =   5.7993084956434E+00
(PID.TID 0000.0001) %MON dynstat_eta_min              =  -1.4167501574766E+01
(PID.TID 0000.0001) %MON dynstat_eta_mean             =  -2.5225796560571E+00
(PID.TID 0000.0001) %MON dynstat_eta_sd               =   4.9406483324709E+00
(PID.TID 0000.0001) %MON dynstat_eta_del2             =   1.9059219267136E-01
(PID.TID 0000.0001) %MON dynstat_uvel_max             =   1.1072770788756E-02
(PID.TID 0000.0001) %MON dynstat_uvel_min             =  -5.0023611769653E-02
(PID.TID 0000.0001) %MON dynstat_uvel_mean            =   4.1816255477132E-09
(PID.TID 0000.0001) %MON dynstat_uvel_sd              =   1.4335092106029E-03
(PID.TID 0000.0001) %MON dynstat_uvel_del2            =   2.2160778306513E-06
(PID.TID 0000.0001) %MON dynstat_vvel_max             =   3.0881794297210E-02
(PID.TID 0000.0001) %MON dynstat_vvel_min             =  -1.4380708347771E-02
(PID.TID 0000.0001) %MON dynstat_vvel_mean            =   6.3344428285083E-08
(PID.TID 0000.0001) %MON dynstat_vvel_sd              =   6.4063611900186E-04
(PID.TID 0000.0001) %MON dynstat_vvel_del2            =   1.6880156348806E-06
(PID.TID 0000.0001) %MON dynstat_wvel_max             =   1.9632018354733E-03
(PID.TID 0000.0001) %MON dynstat_wvel_min             =  -2.5402595253155E-03
(PID.TID 0000.0001) %MON dynstat_wvel_mean            =   4.7636890464951E-10
(PID.TID 0000.0001) %MON dynstat_wvel_sd              =   3.2680870859688E-05
(PID.TID 0000.0001) %MON dynstat_wvel_del2            =   1.2775133006546E-07
(PID.TID 0000.0001) %MON dynstat_theta_max            =   1.2000000000000E+00
(PID.TID 0000.0001) %MON dynstat_theta_min            =  -1.0000000000000E+00
(PID.TID 0000.0001) %MON dynstat_theta_mean           =   5.6493654229266E-01
(PID.TID 0000.0001) %MON dynstat_theta_sd             =   8.4885235710635E-01
(PID.TID 0000.0001) %MON dynstat_theta_del2           =   4.6688450550027E-06
(PID.TID 0000.0001) %MON dynstat_salt_max             =   3.4700000000000E+01
(PID.TID 0000.0001) %MON dynstat_salt_min             =   3.4000000000000E+01
(PID.TID 0000.0001) %MON dynstat_salt_mean            =   3.4497888698021E+01
(PID.TID 0000.0001) %MON dynstat_salt_sd              =   2.7007977921419E-01
(PID.TID 0000.0001) %MON dynstat_salt_del2            =   1.8489413105829E-06
(PID.TID 0000.0001) %MON advcfl_uvel_max              =   5.0023611769653E-03
(PID.TID 0000.0001) %MON advcfl_vvel_max              =   3.0881794297210E-03
(PID.TID 0000.0001) %MON advcfl_wvel_max              =   1.2701297626578E-02
(PID.TID 0000.0001) %MON advcfl_W_hf_max              =   1.2701297626578E-02
(PID.TID 0000.0001) %MON pe_b_mean                    =  -6.8151761442082E-01
(PID.TID 0000.0001) %MON ke_max                       =   1.1484518340925E-03
(PID.TID 0000.0001) %MON ke_mean                      =   1.2133607444813E-06
(PID.TID 0000.0001) %MON ke_vol                       =   4.6183158215413E+12
(PID.TID 0000.0001) // =======================================================
(PID.TID 0000.0001) // End MONITOR dynamic field statistics
(PID.TID 0000.0001) // =======================================================
(PID.TID 0000.0001) // =======================================================
(PID.TID 0000.0001) // Begin OBCS MONITOR field statistics
(PID.TID 0000.0001) // =======================================================
(PID.TID 0000.0001) %MON obc_N_vVel_max               =   1.5612896565681E-08
(PID.TID 0000.0001) %MON obc_N_vVel_min               =   1.5612896565681E-08
(PID.TID 0000.0001) %MON obc_N_vVel_mean              =   1.5612896565681E-08
(PID.TID 0000.0001) %MON obc_N_vVel_sd                =   3.3454392974351E-15
(PID.TID 0000.0001) %MON obc_N_vVel_Int               =   1.0304511733350E+00
(PID.TID 0000.0001) // =======================================================
(PID.TID 0000.0001) // End OBCS MONITOR field statistics
(PID.TID 0000.0001) // =======================================================
 cg2d: Sum(rhs),rhsMax =   3.00676965645688E+00  4.53040351205103E+02
(PID.TID 0000.0001)      cg2d_init_res =   5.20209721616612E-06
(PID.TID 0000.0001)      cg2d_iters(min,last) =      -1      77
(PID.TID 0000.0001)      cg2d_last_res =   9.78682948066008E-12
(PID.TID 0000.0001) // =======================================================
(PID.TID 0000.0001) // Begin MONITOR dynamic field statistics
(PID.TID 0000.0001) // =======================================================
(PID.TID 0000.0001) %MON time_tsnumber                =                  1385
(PID.TID 0000.0001) %MON time_secondsf                =   1.3850000000000E+05
(PID.TID 0000.0001) %MON dynstat_eta_max              =   5.7993115097300E+00
(PID.TID 0000.0001) %MON dynstat_eta_min              =  -1.4167481242474E+01
(PID.TID 0000.0001) %MON dynstat_eta_mean             =  -2.5225703354705E+00
(PID.TID 0000.0001) %MON dynstat_eta_sd               =   4.9406456622445E+00
(PID.TID 0000.0001) %MON dynstat_eta_del2             =   1.9059222096895E-01
(PID.TID 0000.0001) %MON dynstat_uvel_max             =   1.1095452572532E-02
(PID.TID 0000.0001) %MON dynstat_uvel_min             =  -5.0124421313743E-02
(PID.TID 0000.0001) %MON dynstat_uvel_mean            =   4.1767782615086E-09
(PID.TID 0000.0001) %MON dynstat_uvel_sd              =   1.4367449888432E-03
(PID.TID 0000.0001) %MON dynstat_uvel_del2            =   2.2212659907426E-06
(PID.TID 0000.0001) %MON dynstat_vvel_max             =   3.0924445532807E-02
(PID.TID 0000.0001) %MON dynstat_vvel_min             =  -1.4419802335766E-02
(PID.TID 0000.0001) %MON dynstat_vvel_mean            =   6.9291151735668E-08
(PID.TID 0000.0001) %MON dynstat_vvel_sd              =   6.4188458290549E-04
(PID.TID 0000.0001) %MON dynstat_vvel_del2            =   1.6910743657680E-06
(PID.TID 0000.0001) %MON dynstat_wvel_max             =   1.9666690119988E-03
(PID.TID 0000.0001) %MON dynstat_wvel_min             =  -2.5447797280514E-03
(PID.TID 0000.0001) %MON dynstat_wvel_mean            =   4.7941305411362E-10
(PID.TID 0000.0001) %MON dynstat_wvel_sd              =   3.2741570516823E-05
(PID.TID 0000.0001) %MON dynstat_wvel_del2            =   1.2795572814149E-07
(PID.TID 0000.0001) %MON dynstat_theta_max            =   1.2000000000000E+00
(PID.TID 0000.0001) %MON dynstat_theta_min            =  -1.0000000000000E+00
(PID.TID 0000.0001) %MON dynstat_theta_mean           =   5.6493550572016E-01
(PID.TID 0000.0001) %MON dynstat_theta_sd             =   8.4885188952278E-01
(PID.TID 0000.0001) %MON dynstat_theta_del2           =   4.6771228269496E-06
(PID.TID 0000.0001) %MON dynstat_salt_max             =   3.4700000000000E+01
(PID.TID 0000.0001) %MON dynstat_salt_min             =   3.4000000000000E+01
(PID.TID 0000.0001) %MON dynstat_salt_mean            =   3.4497888283687E+01
(PID.TID 0000.0001) %MON dynstat_salt_sd              =   2.7007960299696E-01
(PID.TID 0000.0001) %MON dynstat_salt_del2            =   1.8522341809010E-06
(PID.TID 0000.0001) %MON advcfl_uvel_max              =   5.0124421313743E-03
(PID.TID 0000.0001) %MON advcfl_vvel_max              =   3.0924445532807E-03
(PID.TID 0000.0001) %MON advcfl_wvel_max              =   1.2723898640257E-02
(PID.TID 0000.0001) %MON advcfl_W_hf_max              =   1.2723898640257E-02
(PID.TID 0000.0001) %MON pe_b_mean                    =  -6.8151481470039E-01
(PID.TID 0000.0001) %MON ke_max                       =   1.1536315591801E-03
(PID.TID 0000.0001) %MON ke_mean                      =   1.2187177703821E-06
(PID.TID 0000.0001) %MON ke_vol                       =   4.6183158768430E+12
(PID.TID 0000.0001) // =======================================================
(PID.TID 0000.0001) // End MONITOR dynamic field statistics
(PID.TID 0000.0001) // =======================================================
(PID.TID 0000.0001) // =======================================================
(PID.TID 0000.0001) // Begin OBCS MONITOR field statistics
(PID.TID 0000.0001) // =======================================================
(PID.TID 0000.0001) %MON obc_N_vVel_max               =   2.0928086263150E-08
(PID.TID 0000.0001) %MON obc_N_vVel_min               =   2.0928086263149E-08
(PID.TID 0000.0001) %MON obc_N_vVel_mean              =   2.0928086263150E-08
(PID.TID 0000.0001) %MON obc_N_vVel_sd                =  -5.8671529825813E-30
(PID.TID 0000.0001) %MON obc_N_vVel_Int               =   1.3812536933679E+00
(PID.TID 0000.0001) // =======================================================
(PID.TID 0000.0001) // End OBCS MONITOR field statistics
(PID.TID 0000.0001) // =======================================================
 cg2d: Sum(rhs),rhsMax =   3.00675866146135E+00  4.53040332117448E+02
(PID.TID 0000.0001)      cg2d_init_res =   5.21037351264423E-06
(PID.TID 0000.0001)      cg2d_iters(min,last) =      -1      77
(PID.TID 0000.0001)      cg2d_last_res =   9.80617637843608E-12
(PID.TID 0000.0001) // =======================================================
(PID.TID 0000.0001) // Begin MONITOR dynamic field statistics
(PID.TID 0000.0001) // =======================================================
(PID.TID 0000.0001) %MON time_tsnumber                =                  1386
(PID.TID 0000.0001) %MON time_secondsf                =   1.3860000000000E+05
(PID.TID 0000.0001) %MON dynstat_eta_max              =   5.7993145164815E+00
(PID.TID 0000.0001) %MON dynstat_eta_min              =  -1.4167460878163E+01
(PID.TID 0000.0001) %MON dynstat_eta_mean             =  -2.5225610047879E+00
(PID.TID 0000.0001) %MON dynstat_eta_sd               =   4.9406429895488E+00
(PID.TID 0000.0001) %MON dynstat_eta_del2             =   1.9059224931808E-01
(PID.TID 0000.0001) %MON dynstat_uvel_max             =   1.1118147647087E-02
(PID.TID 0000.0001) %MON dynstat_uvel_min             =  -5.0225367488622E-02
(PID.TID 0000.0001) %MON dynstat_uvel_mean            =   4.1766903761458E-09
(PID.TID 0000.0001) %MON dynstat_uvel_sd              =   1.4399866096385E-03
(PID.TID 0000.0001) %MON dynstat_uvel_del2            =   2.2264649566188E-06
(PID.TID 0000.0001) %MON dynstat_vvel_max             =   3.0967103128528E-02
(PID.TID 0000.0001) %MON dynstat_vvel_min             =  -1.4458967648135E-02
(PID.TID 0000.0001) %MON dynstat_vvel_mean            =   7.5597373260255E-08
(PID.TID 0000.0001) %MON dynstat_vvel_sd              =   6.4313527167101E-04
(PID.TID 0000.0001) %MON dynstat_vvel_del2            =   1.6941364017466E-06
(PID.TID 0000.0001) %MON dynstat_wvel_max             =   1.9701382769634E-03
(PID.TID 0000.0001) %MON dynstat_wvel_min             =  -2.5492919931595E-03
(PID.TID 0000.0001) %MON dynstat_wvel_mean            =   4.8157749631191E-10
(PID.TID 0000.0001) %MON dynstat_wvel_sd              =   3.2802472864014E-05
(PID.TID 0000.0001) %MON dynstat_wvel_del2            =   1.2816063903681E-07
(PID.TID 0000.0001) %MON dynstat_theta_max            =   1.2000000000000E+00
(PID.TID 0000.0001) %MON dynstat_theta_min            =  -1.0000000000000E+00
(PID.TID 0000.0001) %MON dynstat_theta_mean           =   5.6493446730225E-01
(PID.TID 0000.0001) %MON dynstat_theta_sd             =   8.4885142118548E-01
(PID.TID 0000.0001) %MON dynstat_theta_del2           =   4.6854099284310E-06
(PID.TID 0000.0001) %MON dynstat_salt_max             =   3.4700000000000E+01
(PID.TID 0000.0001) %MON dynstat_salt_min             =   3.4000000000000E+01
(PID.TID 0000.0001) %MON dynstat_salt_mean            =   3.4497887868616E+01
(PID.TID 0000.0001) %MON dynstat_salt_sd              =   2.7007942650203E-01
(PID.TID 0000.0001) %MON dynstat_salt_del2            =   1.8555307996324E-06
(PID.TID 0000.0001) %MON advcfl_uvel_max              =   5.0225367488622E-03
(PID.TID 0000.0001) %MON advcfl_vvel_max              =   3.0967103128528E-03
(PID.TID 0000.0001) %MON advcfl_wvel_max              =   1.2746459965798E-02
(PID.TID 0000.0001) %MON advcfl_W_hf_max              =   1.2746459965798E-02
(PID.TID 0000.0001) %MON pe_b_mean                    =  -6.8151201132147E-01
(PID.TID 0000.0001) %MON ke_max                       =   1.1588306514916E-03
(PID.TID 0000.0001) %MON ke_mean                      =   1.2240963142760E-06
(PID.TID 0000.0001) %MON ke_vol                       =   4.6183159322073E+12
(PID.TID 0000.0001) // =======================================================
(PID.TID 0000.0001) // End MONITOR dynamic field statistics
(PID.TID 0000.0001) // =======================================================
(PID.TID 0000.0001) // =======================================================
(PID.TID 0000.0001) // Begin OBCS MONITOR field statistics
(PID.TID 0000.0001) // =======================================================
(PID.TID 0000.0001) %MON obc_N_vVel_max               =   2.6659545475044E-08
(PID.TID 0000.0001) %MON obc_N_vVel_min               =   2.6659545475044E-08
(PID.TID 0000.0001) %MON obc_N_vVel_mean              =   2.6659545475044E-08
(PID.TID 0000.0001) %MON obc_N_vVel_sd                =   1.5383701491069E-15
(PID.TID 0000.0001) %MON obc_N_vVel_Int               =   1.7595300013529E+00
(PID.TID 0000.0001) // =======================================================
(PID.TID 0000.0001) // End OBCS MONITOR field statistics
(PID.TID 0000.0001) // =======================================================
 cg2d: Sum(rhs),rhsMax =   3.00674765446850E+00  4.53040313080294E+02
(PID.TID 0000.0001)      cg2d_init_res =   5.21868416111665E-06
(PID.TID 0000.0001)      cg2d_iters(min,last) =      -1      77
(PID.TID 0000.0001)      cg2d_last_res =   9.82547886484575E-12
(PID.TID 0000.0001) // =======================================================
(PID.TID 0000.0001) // Begin MONITOR dynamic field statistics
(PID.TID 0000.0001) // =======================================================
(PID.TID 0000.0001) %MON time_tsnumber                =                  1387
(PID.TID 0000.0001) %MON time_secondsf                =   1.3870000000000E+05
(PID.TID 0000.0001) %MON dynstat_eta_max              =   5.7993175155312E+00
(PID.TID 0000.0001) %MON dynstat_eta_min              =  -1.4167440482135E+01
(PID.TID 0000.0001) %MON dynstat_eta_mean             =  -2.5225516643220E+00
(PID.TID 0000.0001) %MON dynstat_eta_sd               =   4.9406403143750E+00
(PID.TID 0000.0001) %MON dynstat_eta_del2             =   1.9059227771844E-01
(PID.TID 0000.0001) %MON dynstat_uvel_max             =   1.1140855773358E-02
(PID.TID 0000.0001) %MON dynstat_uvel_min             =  -5.0326450461000E-02
(PID.TID 0000.0001) %MON dynstat_uvel_mean            =   4.1816581244303E-09
(PID.TID 0000.0001) %MON dynstat_uvel_sd              =   1.4432340740241E-03
(PID.TID 0000.0001) %MON dynstat_uvel_del2            =   2.2316747426447E-06
(PID.TID 0000.0001) %MON dynstat_vvel_max             =   3.1009767042026E-02
(PID.TID 0000.0001) %MON dynstat_vvel_min             =  -1.4498204379214E-02
(PID.TID 0000.0001) %MON dynstat_vvel_mean            =   8.2144202271229E-08
(PID.TID 0000.0001) %MON dynstat_vvel_sd              =   6.4438820302073E-04
(PID.TID 0000.0001) %MON dynstat_vvel_del2            =   1.6972016213913E-06
(PID.TID 0000.0001) %MON dynstat_wvel_max             =   1.9736096213001E-03
(PID.TID 0000.0001) %MON dynstat_wvel_min             =  -2.5537961963699E-03
(PID.TID 0000.0001) %MON dynstat_wvel_mean            =   4.8283949461171E-10
(PID.TID 0000.0001) %MON dynstat_wvel_sd              =   3.2863528026431E-05
(PID.TID 0000.0001) %MON dynstat_wvel_del2            =   1.2836551893048E-07
(PID.TID 0000.0001) %MON dynstat_theta_max            =   1.2000000000000E+00
(PID.TID 0000.0001) %MON dynstat_theta_min            =  -1.0000000000000E+00
(PID.TID 0000.0001) %MON dynstat_theta_mean           =   5.6493342703733E-01
(PID.TID 0000.0001) %MON dynstat_theta_sd             =   8.4885095209406E-01
(PID.TID 0000.0001) %MON dynstat_theta_del2           =   4.6937065034882E-06
(PID.TID 0000.0001) %MON dynstat_salt_max             =   3.4700000000000E+01
(PID.TID 0000.0001) %MON dynstat_salt_min             =   3.4000000000000E+01
(PID.TID 0000.0001) %MON dynstat_salt_mean            =   3.4497887452807E+01
(PID.TID 0000.0001) %MON dynstat_salt_sd              =   2.7007924972925E-01
(PID.TID 0000.0001) %MON dynstat_salt_del2            =   1.8588312061327E-06
(PID.TID 0000.0001) %MON advcfl_uvel_max              =   5.0326450461000E-03
(PID.TID 0000.0001) %MON advcfl_vvel_max              =   3.1009767042026E-03
(PID.TID 0000.0001) %MON advcfl_wvel_max              =   1.2768980981849E-02
(PID.TID 0000.0001) %MON advcfl_W_hf_max              =   1.2768980981849E-02
(PID.TID 0000.0001) %MON pe_b_mean                    =  -6.8150920432023E-01
(PID.TID 0000.0001) %MON ke_max                       =   1.1640491643825E-03
(PID.TID 0000.0001) %MON ke_mean                      =   1.2294964531431E-06
(PID.TID 0000.0001) %MON ke_vol                       =   4.6183159876316E+12
(PID.TID 0000.0001) // =======================================================
(PID.TID 0000.0001) // End MONITOR dynamic field statistics
(PID.TID 0000.0001) // =======================================================
(PID.TID 0000.0001) // =======================================================
(PID.TID 0000.0001) // Begin OBCS MONITOR field statistics
(PID.TID 0000.0001) // =======================================================
(PID.TID 0000.0001) %MON obc_N_vVel_max               =   3.2697666580190E-08
(PID.TID 0000.0001) %MON obc_N_vVel_min               =   3.2697666580189E-08
(PID.TID 0000.0001) %MON obc_N_vVel_mean              =   3.2697666580190E-08
(PID.TID 0000.0001) %MON obc_N_vVel_sd                =  -3.5695955961251E-29
(PID.TID 0000.0001) %MON obc_N_vVel_Int               =   2.1580459942925E+00
(PID.TID 0000.0001) // =======================================================
(PID.TID 0000.0001) // End OBCS MONITOR field statistics
(PID.TID 0000.0001) // =======================================================
 cg2d: Sum(rhs),rhsMax =   3.00673663578278E+00  4.53040294081190E+02
(PID.TID 0000.0001)      cg2d_init_res =   5.22703125108410E-06
(PID.TID 0000.0001)      cg2d_iters(min,last) =      -1      77
(PID.TID 0000.0001)      cg2d_last_res =   9.84475810247772E-12
(PID.TID 0000.0001) // =======================================================
(PID.TID 0000.0001) // Begin MONITOR dynamic field statistics
(PID.TID 0000.0001) // =======================================================
(PID.TID 0000.0001) %MON time_tsnumber                =                  1388
(PID.TID 0000.0001) %MON time_secondsf                =   1.3880000000000E+05
(PID.TID 0000.0001) %MON dynstat_eta_max              =   5.7993205067207E+00
(PID.TID 0000.0001) %MON dynstat_eta_min              =  -1.4167420054432E+01
(PID.TID 0000.0001) %MON dynstat_eta_mean             =  -2.5225423142587E+00
(PID.TID 0000.0001) %MON dynstat_eta_sd               =   4.9406376366718E+00
(PID.TID 0000.0001) %MON dynstat_eta_del2             =   1.9059230616972E-01
(PID.TID 0000.0001) %MON dynstat_uvel_max             =   1.1163576710922E-02
(PID.TID 0000.0001) %MON dynstat_uvel_min             =  -5.0427670392284E-02
(PID.TID 0000.0001) %MON dynstat_uvel_mean            =   4.1918747450788E-09
(PID.TID 0000.0001) %MON dynstat_uvel_sd              =   1.4464873830913E-03
(PID.TID 0000.0001) %MON dynstat_uvel_del2            =   2.2368953630384E-06
(PID.TID 0000.0001) %MON dynstat_vvel_max             =   3.1052437230167E-02
(PID.TID 0000.0001) %MON dynstat_vvel_min             =  -1.4537512620358E-02
(PID.TID 0000.0001) %MON dynstat_vvel_mean            =   8.8809057690923E-08
(PID.TID 0000.0001) %MON dynstat_vvel_sd              =   6.4564339314885E-04
(PID.TID 0000.0001) %MON dynstat_vvel_del2            =   1.7002699135989E-06
(PID.TID 0000.0001) %MON dynstat_wvel_max             =   1.9770830357887E-03
(PID.TID 0000.0001) %MON dynstat_wvel_min             =  -2.5582922124175E-03
(PID.TID 0000.0001) %MON dynstat_wvel_mean            =   4.8319412821833E-10
(PID.TID 0000.0001) %MON dynstat_wvel_sd              =   3.2924687889832E-05
(PID.TID 0000.0001) %MON dynstat_wvel_del2            =   1.2856983092298E-07
(PID.TID 0000.0001) %MON dynstat_theta_max            =   1.2000000000000E+00
(PID.TID 0000.0001) %MON dynstat_theta_min            =  -1.0000000000000E+00
(PID.TID 0000.0001) %MON dynstat_theta_mean           =   5.6493238492391E-01
(PID.TID 0000.0001) %MON dynstat_theta_sd             =   8.4885048224753E-01
(PID.TID 0000.0001) %MON dynstat_theta_del2           =   4.7020126616158E-06
(PID.TID 0000.0001) %MON dynstat_salt_max             =   3.4700000000000E+01
(PID.TID 0000.0001) %MON dynstat_salt_min             =   3.4000000000000E+01
(PID.TID 0000.0001) %MON dynstat_salt_mean            =   3.4497887036260E+01
(PID.TID 0000.0001) %MON dynstat_salt_sd              =   2.7007907267838E-01
(PID.TID 0000.0001) %MON dynstat_salt_del2            =   1.8621354422476E-06
(PID.TID 0000.0001) %MON advcfl_uvel_max              =   5.0427670392284E-03
(PID.TID 0000.0001) %MON advcfl_vvel_max              =   3.1052437230167E-03
(PID.TID 0000.0001) %MON advcfl_wvel_max              =   1.2791461062087E-02
(PID.TID 0000.0001) %MON advcfl_W_hf_max              =   1.2791461062087E-02
(PID.TID 0000.0001) %MON pe_b_mean                    =  -6.8150639370669E-01
(PID.TID 0000.0001) %MON ke_max                       =   1.1692871513203E-03
(PID.TID 0000.0001) %MON ke_mean                      =   1.2349182632712E-06
(PID.TID 0000.0001) %MON ke_vol                       =   4.6183160431139E+12
(PID.TID 0000.0001) // =======================================================
(PID.TID 0000.0001) // End MONITOR dynamic field statistics
(PID.TID 0000.0001) // =======================================================
(PID.TID 0000.0001) // =======================================================
(PID.TID 0000.0001) // Begin OBCS MONITOR field statistics
(PID.TID 0000.0001) // =======================================================
(PID.TID 0000.0001) %MON obc_N_vVel_max               =   3.8927786448853E-08
(PID.TID 0000.0001) %MON obc_N_vVel_min               =   3.8927786448851E-08
(PID.TID 0000.0001) %MON obc_N_vVel_mean              =   3.8927786448851E-08
(PID.TID 0000.0001) %MON obc_N_vVel_sd                =   9.3469965899869E-15
(PID.TID 0000.0001) %MON obc_N_vVel_Int               =   2.5692339056242E+00
(PID.TID 0000.0001) // =======================================================
(PID.TID 0000.0001) // End OBCS MONITOR field statistics
(PID.TID 0000.0001) // =======================================================
 cg2d: Sum(rhs),rhsMax =   3.00672560556439E+00  4.53040275106000E+02
(PID.TID 0000.0001)      cg2d_init_res =   5.23541492465159E-06
(PID.TID 0000.0001)      cg2d_iters(min,last) =      -1      77
(PID.TID 0000.0001)      cg2d_last_res =   9.86404782251342E-12
(PID.TID 0000.0001) // =======================================================
(PID.TID 0000.0001) // Begin MONITOR dynamic field statistics
(PID.TID 0000.0001) // =======================================================
(PID.TID 0000.0001) %MON time_tsnumber                =                  1389
(PID.TID 0000.0001) %MON time_secondsf                =   1.3890000000000E+05
(PID.TID 0000.0001) %MON dynstat_eta_max              =   5.7993234901067E+00
(PID.TID 0000.0001) %MON dynstat_eta_min              =  -1.4167399594847E+01
(PID.TID 0000.0001) %MON dynstat_eta_mean             =  -2.5225329546540E+00
(PID.TID 0000.0001) %MON dynstat_eta_sd               =   4.9406349563437E+00
(PID.TID 0000.0001) %MON dynstat_eta_del2             =   1.9059233467153E-01
(PID.TID 0000.0001) %MON dynstat_uvel_max             =   1.1186310217217E-02
(PID.TID 0000.0001) %MON dynstat_uvel_min             =  -5.0529027438365E-02
(PID.TID 0000.0001) %MON dynstat_uvel_mean            =   4.2074266000654E-09
(PID.TID 0000.0001) %MON dynstat_uvel_sd              =   1.4497465380002E-03
(PID.TID 0000.0001) %MON dynstat_uvel_del2            =   2.2421268321284E-06
(PID.TID 0000.0001) %MON dynstat_vvel_max             =   3.1095113649465E-02
(PID.TID 0000.0001) %MON dynstat_vvel_min             =  -1.4576892459635E-02
(PID.TID 0000.0001) %MON dynstat_vvel_mean            =   9.5468117629928E-08
(PID.TID 0000.0001) %MON dynstat_vvel_sd              =   6.4690085741554E-04
(PID.TID 0000.0001) %MON dynstat_vvel_del2            =   1.7033411873510E-06
(PID.TID 0000.0001) %MON dynstat_wvel_max             =   1.9805585109677E-03
(PID.TID 0000.0001) %MON dynstat_wvel_min             =  -2.5627799157657E-03
(PID.TID 0000.0001) %MON dynstat_wvel_mean            =   4.8265422590710E-10
(PID.TID 0000.0001) %MON dynstat_wvel_sd              =   3.2985912107665E-05
(PID.TID 0000.0001) %MON dynstat_wvel_del2            =   1.2877309353460E-07
(PID.TID 0000.0001) %MON dynstat_theta_max            =   1.2000000000000E+00
(PID.TID 0000.0001) %MON dynstat_theta_min            =  -1.0000000000000E+00
(PID.TID 0000.0001) %MON dynstat_theta_mean           =   5.6493134096048E-01
(PID.TID 0000.0001) %MON dynstat_theta_sd             =   8.4885001164362E-01
(PID.TID 0000.0001) %MON dynstat_theta_del2           =   4.7103285467572E-06
(PID.TID 0000.0001) %MON dynstat_salt_max             =   3.4700000000000E+01
(PID.TID 0000.0001) %MON dynstat_salt_min             =   3.4000000000000E+01
(PID.TID 0000.0001) %MON dynstat_salt_mean            =   3.4497886618974E+01
(PID.TID 0000.0001) %MON dynstat_salt_sd              =   2.7007889534857E-01
(PID.TID 0000.0001) %MON dynstat_salt_del2            =   1.8654435193891E-06
(PID.TID 0000.0001) %MON advcfl_uvel_max              =   5.0529027438365E-03
(PID.TID 0000.0001) %MON advcfl_vvel_max              =   3.1095113649465E-03
(PID.TID 0000.0001) %MON advcfl_wvel_max              =   1.2813899578828E-02
(PID.TID 0000.0001) %MON advcfl_W_hf_max              =   1.2813899578828E-02
(PID.TID 0000.0001) %MON pe_b_mean                    =  -6.8150357946436E-01
(PID.TID 0000.0001) %MON ke_max                       =   1.1745446658768E-03
(PID.TID 0000.0001) %MON ke_mean                      =   1.2403618207136E-06
(PID.TID 0000.0001) %MON ke_vol                       =   4.6183160986533E+12
(PID.TID 0000.0001) // =======================================================
(PID.TID 0000.0001) // End MONITOR dynamic field statistics
(PID.TID 0000.0001) // =======================================================
(PID.TID 0000.0001) // =======================================================
(PID.TID 0000.0001) // Begin OBCS MONITOR field statistics
(PID.TID 0000.0001) // =======================================================
(PID.TID 0000.0001) %MON obc_N_vVel_max               =   4.5232499120207E-08
(PID.TID 0000.0001) %MON obc_N_vVel_min               =   4.5232499120206E-08
(PID.TID 0000.0001) %MON obc_N_vVel_mean              =   4.5232499120207E-08
(PID.TID 0000.0001) %MON obc_N_vVel_sd                =  -4.5359502050208E-29
(PID.TID 0000.0001) %MON obc_N_vVel_Int               =   2.9853449419336E+00
(PID.TID 0000.0001) // =======================================================
(PID.TID 0000.0001) // End OBCS MONITOR field statistics
(PID.TID 0000.0001) // =======================================================
 cg2d: Sum(rhs),rhsMax =   3.00671456382725E+00  4.53040256139178E+02
(PID.TID 0000.0001)      cg2d_init_res =   5.24383501826504E-06
(PID.TID 0000.0001)      cg2d_iters(min,last) =      -1      77
(PID.TID 0000.0001)      cg2d_last_res =   9.88335503447656E-12
(PID.TID 0000.0001) // =======================================================
(PID.TID 0000.0001) // Begin MONITOR dynamic field statistics
(PID.TID 0000.0001) // =======================================================
(PID.TID 0000.0001) %MON time_tsnumber                =                  1390
(PID.TID 0000.0001) %MON time_secondsf                =   1.3900000000000E+05
(PID.TID 0000.0001) %MON dynstat_eta_max              =   5.7993264659761E+00
(PID.TID 0000.0001) %MON dynstat_eta_min              =  -1.4167379102924E+01
(PID.TID 0000.0001) %MON dynstat_eta_mean             =  -2.5225235854328E+00
(PID.TID 0000.0001) %MON dynstat_eta_sd               =   4.9406322732534E+00
(PID.TID 0000.0001) %MON dynstat_eta_del2             =   1.9059236322333E-01
(PID.TID 0000.0001) %MON dynstat_uvel_max             =   1.1209056047525E-02
(PID.TID 0000.0001) %MON dynstat_uvel_min             =  -5.0630521749429E-02
(PID.TID 0000.0001) %MON dynstat_uvel_mean            =   4.2282956159474E-09
(PID.TID 0000.0001) %MON dynstat_uvel_sd              =   1.4530115399685E-03
(PID.TID 0000.0001) %MON dynstat_uvel_del2            =   2.2473691633213E-06
(PID.TID 0000.0001) %MON dynstat_vvel_max             =   3.1137796256339E-02
(PID.TID 0000.0001) %MON dynstat_vvel_min             =  -1.4616343981219E-02
(PID.TID 0000.0001) %MON dynstat_vvel_mean            =   1.0199877463138E-07
(PID.TID 0000.0001) %MON dynstat_vvel_sd              =   6.4816061089873E-04
(PID.TID 0000.0001) %MON dynstat_vvel_del2            =   1.7064153789935E-06
(PID.TID 0000.0001) %MON dynstat_wvel_max             =   1.9840360371995E-03
(PID.TID 0000.0001) %MON dynstat_wvel_min             =  -2.5672591805665E-03
(PID.TID 0000.0001) %MON dynstat_wvel_mean            =   4.8125021500228E-10
(PID.TID 0000.0001) %MON dynstat_wvel_sd              =   3.3047173179377E-05
(PID.TID 0000.0001) %MON dynstat_wvel_del2            =   1.2897492410224E-07
(PID.TID 0000.0001) %MON dynstat_theta_max            =   1.2000000000000E+00
(PID.TID 0000.0001) %MON dynstat_theta_min            =  -1.0000000000000E+00
(PID.TID 0000.0001) %MON dynstat_theta_mean           =   5.6493029514555E-01
(PID.TID 0000.0001) %MON dynstat_theta_sd             =   8.4884954028105E-01
(PID.TID 0000.0001) %MON dynstat_theta_del2           =   4.7186543027237E-06
(PID.TID 0000.0001) %MON dynstat_salt_max             =   3.4700000000000E+01
(PID.TID 0000.0001) %MON dynstat_salt_min             =   3.4000000000000E+01
(PID.TID 0000.0001) %MON dynstat_salt_mean            =   3.4497886200947E+01
(PID.TID 0000.0001) %MON dynstat_salt_sd              =   2.7007871773973E-01
(PID.TID 0000.0001) %MON dynstat_salt_del2            =   1.8687555001813E-06
(PID.TID 0000.0001) %MON advcfl_uvel_max              =   5.0630521749429E-03
(PID.TID 0000.0001) %MON advcfl_vvel_max              =   3.1137796256339E-03
(PID.TID 0000.0001) %MON advcfl_wvel_max              =   1.2836295902833E-02
(PID.TID 0000.0001) %MON advcfl_W_hf_max              =   1.2836295902833E-02
(PID.TID 0000.0001) %MON pe_b_mean                    =  -6.8150076155075E-01
(PID.TID 0000.0001) %MON ke_max                       =   1.1798217617268E-03
(PID.TID 0000.0001) %MON ke_mean                      =   1.2458272016282E-06
(PID.TID 0000.0001) %MON ke_vol                       =   4.6183161542494E+12
(PID.TID 0000.0001) // =======================================================
(PID.TID 0000.0001) // End MONITOR dynamic field statistics
(PID.TID 0000.0001) // =======================================================
(PID.TID 0000.0001) // =======================================================
(PID.TID 0000.0001) // Begin OBCS MONITOR field statistics
(PID.TID 0000.0001) // =======================================================
(PID.TID 0000.0001) %MON obc_N_vVel_max               =   5.1493966543172E-08
(PID.TID 0000.0001) %MON obc_N_vVel_min               =   5.1493966543171E-08
(PID.TID 0000.0001) %MON obc_N_vVel_mean              =   5.1493966543171E-08
(PID.TID 0000.0001) %MON obc_N_vVel_sd                =   9.8503751878893E-15
(PID.TID 0000.0001) %MON obc_N_vVel_Int               =   3.3986017918493E+00
(PID.TID 0000.0001) // =======================================================
(PID.TID 0000.0001) // End OBCS MONITOR field statistics
(PID.TID 0000.0001) // =======================================================
 cg2d: Sum(rhs),rhsMax =   3.00670351043864E+00  4.53040237164134E+02
(PID.TID 0000.0001)      cg2d_init_res =   5.25229355341866E-06
(PID.TID 0000.0001)      cg2d_iters(min,last) =      -1      77
(PID.TID 0000.0001)      cg2d_last_res =   9.90272685431260E-12
(PID.TID 0000.0001) // =======================================================
(PID.TID 0000.0001) // Begin MONITOR dynamic field statistics
(PID.TID 0000.0001) // =======================================================
(PID.TID 0000.0001) %MON time_tsnumber                =                  1391
(PID.TID 0000.0001) %MON time_secondsf                =   1.3910000000000E+05
(PID.TID 0000.0001) %MON dynstat_eta_max              =   5.7993294347906E+00
(PID.TID 0000.0001) %MON dynstat_eta_min              =  -1.4167358577961E+01
(PID.TID 0000.0001) %MON dynstat_eta_mean             =  -2.5225142063914E+00
(PID.TID 0000.0001) %MON dynstat_eta_sd               =   4.9406295872256E+00
(PID.TID 0000.0001) %MON dynstat_eta_del2             =   1.9059239182461E-01
(PID.TID 0000.0001) %MON dynstat_uvel_max             =   1.1231813954966E-02
(PID.TID 0000.0001) %MON dynstat_uvel_min             =  -5.0732153469840E-02
(PID.TID 0000.0001) %MON dynstat_uvel_mean            =   4.2543551321883E-09
(PID.TID 0000.0001) %MON dynstat_uvel_sd              =   1.4562823903041E-03
(PID.TID 0000.0001) %MON dynstat_uvel_del2            =   2.2526223706902E-06
(PID.TID 0000.0001) %MON dynstat_vvel_max             =   3.1180485007355E-02
(PID.TID 0000.0001) %MON dynstat_vvel_min             =  -1.4655867264947E-02
(PID.TID 0000.0001) %MON dynstat_vvel_mean            =   1.0828204975366E-07
(PID.TID 0000.0001) %MON dynstat_vvel_sd              =   6.4942266878089E-04
(PID.TID 0000.0001) %MON dynstat_vvel_del2            =   1.7094924592391E-06
(PID.TID 0000.0001) %MON dynstat_wvel_max             =   1.9875156046537E-03
(PID.TID 0000.0001) %MON dynstat_wvel_min             =  -2.5717298806768E-03
(PID.TID 0000.0001) %MON dynstat_wvel_mean            =   4.7902911351419E-10
(PID.TID 0000.0001) %MON dynstat_wvel_sd              =   3.3108460192246E-05
(PID.TID 0000.0001) %MON dynstat_wvel_del2            =   1.2917507385499E-07
(PID.TID 0000.0001) %MON dynstat_theta_max            =   1.2000000000000E+00
(PID.TID 0000.0001) %MON dynstat_theta_min            =  -1.0000000000000E+00
(PID.TID 0000.0001) %MON dynstat_theta_mean           =   5.6492924747763E-01
(PID.TID 0000.0001) %MON dynstat_theta_sd             =   8.4884906815908E-01
(PID.TID 0000.0001) %MON dynstat_theta_del2           =   4.7269875375405E-06
(PID.TID 0000.0001) %MON dynstat_salt_max             =   3.4700000000000E+01
(PID.TID 0000.0001) %MON dynstat_salt_min             =   3.4000000000000E+01
(PID.TID 0000.0001) %MON dynstat_salt_mean            =   3.4497885782180E+01
(PID.TID 0000.0001) %MON dynstat_salt_sd              =   2.7007853985158E-01
(PID.TID 0000.0001) %MON dynstat_salt_del2            =   1.8720709000783E-06
(PID.TID 0000.0001) %MON advcfl_uvel_max              =   5.0732153469840E-03
(PID.TID 0000.0001) %MON advcfl_vvel_max              =   3.1180485007355E-03
(PID.TID 0000.0001) %MON advcfl_wvel_max              =   1.2858649403384E-02
(PID.TID 0000.0001) %MON advcfl_W_hf_max              =   1.2858649403384E-02
(PID.TID 0000.0001) %MON pe_b_mean                    =  -6.8149793989813E-01
(PID.TID 0000.0001) %MON ke_max                       =   1.1851184926413E-03
(PID.TID 0000.0001) %MON ke_mean                      =   1.2513144825743E-06
(PID.TID 0000.0001) %MON ke_vol                       =   4.6183162099025E+12
(PID.TID 0000.0001) // =======================================================
(PID.TID 0000.0001) // End MONITOR dynamic field statistics
(PID.TID 0000.0001) // =======================================================
(PID.TID 0000.0001) // =======================================================
(PID.TID 0000.0001) // Begin OBCS MONITOR field statistics
(PID.TID 0000.0001) // =======================================================
(PID.TID 0000.0001) %MON obc_N_vVel_max               =   5.7596264306670E-08
(PID.TID 0000.0001) %MON obc_N_vVel_min               =   5.7596264306670E-08
(PID.TID 0000.0001) %MON obc_N_vVel_mean              =   5.7596264306670E-08
(PID.TID 0000.0001) %MON obc_N_vVel_sd                =  -5.9558998344186E-29
(PID.TID 0000.0001) %MON obc_N_vVel_Int               =   3.8013534442402E+00
(PID.TID 0000.0001) // =======================================================
(PID.TID 0000.0001) // End OBCS MONITOR field statistics
(PID.TID 0000.0001) // =======================================================
 cg2d: Sum(rhs),rhsMax =   3.00669244512258E+00  4.53040218163615E+02
(PID.TID 0000.0001)      cg2d_init_res =   5.26077142417110E-06
(PID.TID 0000.0001)      cg2d_iters(min,last) =      -1      77
(PID.TID 0000.0001)      cg2d_last_res =   9.92214134010965E-12
(PID.TID 0000.0001) // =======================================================
(PID.TID 0000.0001) // Begin MONITOR dynamic field statistics
(PID.TID 0000.0001) // =======================================================
(PID.TID 0000.0001) %MON time_tsnumber                =                  1392
(PID.TID 0000.0001) %MON time_secondsf                =   1.3920000000000E+05
(PID.TID 0000.0001) %MON dynstat_eta_max              =   5.7993323972474E+00
(PID.TID 0000.0001) %MON dynstat_eta_min              =  -1.4167338019032E+01
(PID.TID 0000.0001) %MON dynstat_eta_mean             =  -2.5225048172023E+00
(PID.TID 0000.0001) %MON dynstat_eta_sd               =   4.9406268980497E+00
(PID.TID 0000.0001) %MON dynstat_eta_del2             =   1.9059242047467E-01
(PID.TID 0000.0001) %MON dynstat_uvel_max             =   1.1254583690484E-02
(PID.TID 0000.0001) %MON dynstat_uvel_min             =  -5.0833922737841E-02
(PID.TID 0000.0001) %MON dynstat_uvel_mean            =   4.2853751036063E-09
(PID.TID 0000.0001) %MON dynstat_uvel_sd              =   1.4595590903623E-03
(PID.TID 0000.0001) %MON dynstat_uvel_del2            =   2.2578864668424E-06
(PID.TID 0000.0001) %MON dynstat_vvel_max             =   3.1223179859476E-02
(PID.TID 0000.0001) %MON dynstat_vvel_min             =  -1.4695462385751E-02
(PID.TID 0000.0001) %MON dynstat_vvel_mean            =   1.1420492113061E-07
(PID.TID 0000.0001) %MON dynstat_vvel_sd              =   6.5068704655305E-04
(PID.TID 0000.0001) %MON dynstat_vvel_del2            =   1.7125724354270E-06
(PID.TID 0000.0001) %MON dynstat_wvel_max             =   1.9909972032735E-03
(PID.TID 0000.0001) %MON dynstat_wvel_min             =  -2.5761918896861E-03
(PID.TID 0000.0001) %MON dynstat_wvel_mean            =   4.7605403802971E-10
(PID.TID 0000.0001) %MON dynstat_wvel_sd              =   3.3169780879168E-05
(PID.TID 0000.0001) %MON dynstat_wvel_del2            =   1.2937345148565E-07
(PID.TID 0000.0001) %MON dynstat_theta_max            =   1.2000000000000E+00
(PID.TID 0000.0001) %MON dynstat_theta_min            =  -1.0000000000000E+00
(PID.TID 0000.0001) %MON dynstat_theta_mean           =   5.6492819795523E-01
(PID.TID 0000.0001) %MON dynstat_theta_sd             =   8.4884859527625E-01
(PID.TID 0000.0001) %MON dynstat_theta_del2           =   4.7353258029115E-06
(PID.TID 0000.0001) %MON dynstat_salt_max             =   3.4700000000000E+01
(PID.TID 0000.0001) %MON dynstat_salt_min             =   3.4000000000000E+01
(PID.TID 0000.0001) %MON dynstat_salt_mean            =   3.4497885362672E+01
(PID.TID 0000.0001) %MON dynstat_salt_sd              =   2.7007836168332E-01
(PID.TID 0000.0001) %MON dynstat_salt_del2            =   1.8753877621626E-06
(PID.TID 0000.0001) %MON advcfl_uvel_max              =   5.0833922737841E-03
(PID.TID 0000.0001) %MON advcfl_vvel_max              =   3.1223179859476E-03
(PID.TID 0000.0001) %MON advcfl_wvel_max              =   1.2880959448430E-02
(PID.TID 0000.0001) %MON advcfl_W_hf_max              =   1.2880959448430E-02
(PID.TID 0000.0001) %MON pe_b_mean                    =  -6.8149511441514E-01
(PID.TID 0000.0001) %MON ke_max                       =   1.1904349124813E-03
(PID.TID 0000.0001) %MON ke_mean                      =   1.2568237405883E-06
(PID.TID 0000.0001) %MON ke_vol                       =   4.6183162656140E+12
(PID.TID 0000.0001) // =======================================================
(PID.TID 0000.0001) // End MONITOR dynamic field statistics
(PID.TID 0000.0001) // =======================================================
(PID.TID 0000.0001) // =======================================================
(PID.TID 0000.0001) // Begin OBCS MONITOR field statistics
(PID.TID 0000.0001) // =======================================================
(PID.TID 0000.0001) %MON obc_N_vVel_max               =   6.3427640128967E-08
(PID.TID 0000.0001) %MON obc_N_vVel_min               =   6.3427640128966E-08
(PID.TID 0000.0001) %MON obc_N_vVel_mean              =   6.3427640128966E-08
(PID.TID 0000.0001) %MON obc_N_vVel_sd                =   1.3263332230789E-14
(PID.TID 0000.0001) %MON obc_N_vVel_Int               =   4.1862242485118E+00
(PID.TID 0000.0001) // =======================================================
(PID.TID 0000.0001) // End OBCS MONITOR field statistics
(PID.TID 0000.0001) // =======================================================
 cg2d: Sum(rhs),rhsMax =   3.00668136746522E+00  4.53040199120003E+02
(PID.TID 0000.0001)      cg2d_init_res =   5.26914985962505E-06
(PID.TID 0000.0001)      cg2d_iters(min,last) =      -1      77
(PID.TID 0000.0001)      cg2d_last_res =   9.94139055448928E-12
(PID.TID 0000.0001) // =======================================================
(PID.TID 0000.0001) // Begin MONITOR dynamic field statistics
(PID.TID 0000.0001) // =======================================================
(PID.TID 0000.0001) %MON time_tsnumber                =                  1393
(PID.TID 0000.0001) %MON time_secondsf                =   1.3930000000000E+05
(PID.TID 0000.0001) %MON dynstat_eta_max              =   5.7993353541984E+00
(PID.TID 0000.0001) %MON dynstat_eta_min              =  -1.4167317424993E+01
(PID.TID 0000.0001) %MON dynstat_eta_mean             =  -2.5224954174201E+00
(PID.TID 0000.0001) %MON dynstat_eta_sd               =   4.9406242054825E+00
(PID.TID 0000.0001) %MON dynstat_eta_del2             =   1.9059244917222E-01
(PID.TID 0000.0001) %MON dynstat_uvel_max             =   1.1277365002730E-02
(PID.TID 0000.0001) %MON dynstat_uvel_min             =  -5.0935829685552E-02
(PID.TID 0000.0001) %MON dynstat_uvel_mean            =   4.3210318225046E-09
(PID.TID 0000.0001) %MON dynstat_uvel_sd              =   1.4628416413203E-03
(PID.TID 0000.0001) %MON dynstat_uvel_del2            =   2.2631614548742E-06
(PID.TID 0000.0001) %MON dynstat_vvel_max             =   3.1265880770372E-02
(PID.TID 0000.0001) %MON dynstat_vvel_min             =  -1.4735129413461E-02
(PID.TID 0000.0001) %MON dynstat_vvel_mean            =   1.1966253518165E-07
(PID.TID 0000.0001) %MON dynstat_vvel_sd              =   6.5195376048262E-04
(PID.TID 0000.0001) %MON dynstat_vvel_del2            =   1.7156553500128E-06
(PID.TID 0000.0001) %MON dynstat_wvel_max             =   1.9944808228392E-03
(PID.TID 0000.0001) %MON dynstat_wvel_min             =  -2.5806450809626E-03
(PID.TID 0000.0001) %MON dynstat_wvel_mean            =   4.7240280596376E-10
(PID.TID 0000.0001) %MON dynstat_wvel_sd              =   3.3231161867642E-05
(PID.TID 0000.0001) %MON dynstat_wvel_del2            =   1.2957013435125E-07
(PID.TID 0000.0001) %MON dynstat_theta_max            =   1.2000000000000E+00
(PID.TID 0000.0001) %MON dynstat_theta_min            =  -1.0000000000000E+00
(PID.TID 0000.0001) %MON dynstat_theta_mean           =   5.6492714657679E-01
(PID.TID 0000.0001) %MON dynstat_theta_sd             =   8.4884812163266E-01
(PID.TID 0000.0001) %MON dynstat_theta_del2           =   4.7436740982644E-06
(PID.TID 0000.0001) %MON dynstat_salt_max             =   3.4700000000000E+01
(PID.TID 0000.0001) %MON dynstat_salt_min             =   3.4000000000000E+01
(PID.TID 0000.0001) %MON dynstat_salt_mean            =   3.4497884942421E+01
(PID.TID 0000.0001) %MON dynstat_salt_sd              =   2.7007818323542E-01
(PID.TID 0000.0001) %MON dynstat_salt_del2            =   1.8787085959252E-06
(PID.TID 0000.0001) %MON advcfl_uvel_max              =   5.0935829685552E-03
(PID.TID 0000.0001) %MON advcfl_vvel_max              =   3.1265880770372E-03
(PID.TID 0000.0001) %MON advcfl_wvel_max              =   1.2903225404813E-02
(PID.TID 0000.0001) %MON advcfl_W_hf_max              =   1.2903225404813E-02
(PID.TID 0000.0001) %MON pe_b_mean                    =  -6.8149228498836E-01
(PID.TID 0000.0001) %MON ke_max                       =   1.1957710752019E-03
(PID.TID 0000.0001) %MON ke_mean                      =   1.2623550531681E-06
(PID.TID 0000.0001) %MON ke_vol                       =   4.6183163213858E+12
(PID.TID 0000.0001) // =======================================================
(PID.TID 0000.0001) // End MONITOR dynamic field statistics
(PID.TID 0000.0001) // =======================================================
(PID.TID 0000.0001) // =======================================================
(PID.TID 0000.0001) // Begin OBCS MONITOR field statistics
(PID.TID 0000.0001) // =======================================================
(PID.TID 0000.0001) %MON obc_N_vVel_max               =   6.8882715334241E-08
(PID.TID 0000.0001) %MON obc_N_vVel_min               =   6.8882715334241E-08
(PID.TID 0000.0001) %MON obc_N_vVel_mean              =   6.8882715334241E-08
(PID.TID 0000.0001) %MON obc_N_vVel_sd                =  -2.2088105346188E-29
(PID.TID 0000.0001) %MON obc_N_vVel_Int               =   4.5462592120599E+00
(PID.TID 0000.0001) // =======================================================
(PID.TID 0000.0001) // End OBCS MONITOR field statistics
(PID.TID 0000.0001) // =======================================================
 cg2d: Sum(rhs),rhsMax =   3.00667027692432E+00  4.53040180015780E+02
(PID.TID 0000.0001)      cg2d_init_res =   5.27773466100404E-06
(PID.TID 0000.0001)      cg2d_iters(min,last) =      -1      77
(PID.TID 0000.0001)      cg2d_last_res =   9.96110953744327E-12
(PID.TID 0000.0001) // =======================================================
(PID.TID 0000.0001) // Begin MONITOR dynamic field statistics
(PID.TID 0000.0001) // =======================================================
(PID.TID 0000.0001) %MON time_tsnumber                =                  1394
(PID.TID 0000.0001) %MON time_secondsf                =   1.3940000000000E+05
(PID.TID 0000.0001) %MON dynstat_eta_max              =   5.7993383066614E+00
(PID.TID 0000.0001) %MON dynstat_eta_min              =  -1.4167296794512E+01
(PID.TID 0000.0001) %MON dynstat_eta_mean             =  -2.5224860064924E+00
(PID.TID 0000.0001) %MON dynstat_eta_sd               =   4.9406215092602E+00
(PID.TID 0000.0001) %MON dynstat_eta_del2             =   1.9059247791738E-01
(PID.TID 0000.0001) %MON dynstat_uvel_max             =   1.1300157638120E-02
(PID.TID 0000.0001) %MON dynstat_uvel_min             =  -5.1037874438425E-02
(PID.TID 0000.0001) %MON dynstat_uvel_mean            =   4.3609169186284E-09
(PID.TID 0000.0001) %MON dynstat_uvel_sd              =   1.4661300447415E-03
(PID.TID 0000.0001) %MON dynstat_uvel_del2            =   2.2684473485878E-06
(PID.TID 0000.0001) %MON dynstat_vvel_max             =   3.1308587698502E-02
(PID.TID 0000.0001) %MON dynstat_vvel_min             =  -1.4774868412131E-02
(PID.TID 0000.0001) %MON dynstat_vvel_mean            =   1.2456015620117E-07
(PID.TID 0000.0001) %MON dynstat_vvel_sd              =   6.5322282569267E-04
(PID.TID 0000.0001) %MON dynstat_vvel_del2            =   1.7187412807467E-06
(PID.TID 0000.0001) %MON dynstat_wvel_max             =   1.9979664529188E-03
(PID.TID 0000.0001) %MON dynstat_wvel_min             =  -2.5850893276784E-03
(PID.TID 0000.0001) %MON dynstat_wvel_mean            =   4.6816480433032E-10
(PID.TID 0000.0001) %MON dynstat_wvel_sd              =   3.3292646953949E-05
(PID.TID 0000.0001) %MON dynstat_wvel_del2            =   1.2976536058193E-07
(PID.TID 0000.0001) %MON dynstat_theta_max            =   1.2000000000000E+00
(PID.TID 0000.0001) %MON dynstat_theta_min            =  -1.0000000000000E+00
(PID.TID 0000.0001) %MON dynstat_theta_mean           =   5.6492609334076E-01
(PID.TID 0000.0001) %MON dynstat_theta_sd             =   8.4884764722690E-01
(PID.TID 0000.0001) %MON dynstat_theta_del2           =   4.7520323845542E-06
(PID.TID 0000.0001) %MON dynstat_salt_max             =   3.4700000000000E+01
(PID.TID 0000.0001) %MON dynstat_salt_min             =   3.4000000000000E+01
(PID.TID 0000.0001) %MON dynstat_salt_mean            =   3.4497884521428E+01
(PID.TID 0000.0001) %MON dynstat_salt_sd              =   2.7007800450761E-01
(PID.TID 0000.0001) %MON dynstat_salt_del2            =   1.8820334078605E-06
(PID.TID 0000.0001) %MON advcfl_uvel_max              =   5.1037874438425E-03
(PID.TID 0000.0001) %MON advcfl_vvel_max              =   3.1308587698502E-03
(PID.TID 0000.0001) %MON advcfl_wvel_max              =   1.2925446638392E-02
(PID.TID 0000.0001) %MON advcfl_W_hf_max              =   1.2925446638392E-02
(PID.TID 0000.0001) %MON pe_b_mean                    =  -6.8148945148496E-01
(PID.TID 0000.0001) %MON ke_max                       =   1.2011270348279E-03
(PID.TID 0000.0001) %MON ke_mean                      =   1.2679084978338E-06
(PID.TID 0000.0001) %MON ke_vol                       =   4.6183163772205E+12
(PID.TID 0000.0001) // =======================================================
(PID.TID 0000.0001) // End MONITOR dynamic field statistics
(PID.TID 0000.0001) // =======================================================
(PID.TID 0000.0001) // =======================================================
(PID.TID 0000.0001) // Begin OBCS MONITOR field statistics
(PID.TID 0000.0001) // =======================================================
(PID.TID 0000.0001) %MON obc_N_vVel_max               =   7.3864516553877E-08
(PID.TID 0000.0001) %MON obc_N_vVel_min               =   7.3864516553876E-08
(PID.TID 0000.0001) %MON obc_N_vVel_mean              =   7.3864516553876E-08
(PID.TID 0000.0001) %MON obc_N_vVel_sd                =   1.6134562241441E-14
(PID.TID 0000.0001) %MON obc_N_vVel_Int               =   4.8750580925558E+00
(PID.TID 0000.0001) // =======================================================
(PID.TID 0000.0001) // End OBCS MONITOR field statistics
(PID.TID 0000.0001) // =======================================================
 cg2d: Sum(rhs),rhsMax =   3.00665917284020E+00  4.53040160833842E+02
(PID.TID 0000.0001)      cg2d_init_res =   5.28636209949161E-06
(PID.TID 0000.0001)      cg2d_iters(min,last) =      -1      77
(PID.TID 0000.0001)      cg2d_last_res =   9.98096933216534E-12
(PID.TID 0000.0001) // =======================================================
(PID.TID 0000.0001) // Begin MONITOR dynamic field statistics
(PID.TID 0000.0001) // =======================================================
(PID.TID 0000.0001) %MON time_tsnumber                =                  1395
(PID.TID 0000.0001) %MON time_secondsf                =   1.3950000000000E+05
(PID.TID 0000.0001) %MON dynstat_eta_max              =   5.7993412558130E+00
(PID.TID 0000.0001) %MON dynstat_eta_min              =  -1.4167276126093E+01
(PID.TID 0000.0001) %MON dynstat_eta_mean             =  -2.5224765837705E+00
(PID.TID 0000.0001) %MON dynstat_eta_sd               =   4.9406188090950E+00
(PID.TID 0000.0001) %MON dynstat_eta_del2             =   1.9059250670944E-01
(PID.TID 0000.0001) %MON dynstat_uvel_max             =   1.1322961340756E-02
(PID.TID 0000.0001) %MON dynstat_uvel_min             =  -5.1140057114995E-02
(PID.TID 0000.0001) %MON dynstat_uvel_mean            =   4.4045435151522E-09
(PID.TID 0000.0001) %MON dynstat_uvel_sd              =   1.4694243023024E-03
(PID.TID 0000.0001) %MON dynstat_uvel_del2            =   2.2737441620315E-06
(PID.TID 0000.0001) %MON dynstat_vvel_max             =   3.1351300603523E-02
(PID.TID 0000.0001) %MON dynstat_vvel_min             =  -1.4814679439581E-02
(PID.TID 0000.0001) %MON dynstat_vvel_mean            =   1.2881500419870E-07
(PID.TID 0000.0001) %MON dynstat_vvel_sd              =   6.5449425620003E-04
(PID.TID 0000.0001) %MON dynstat_vvel_del2            =   1.7218303331535E-06
(PID.TID 0000.0001) %MON dynstat_wvel_max             =   2.0014540828972E-03
(PID.TID 0000.0001) %MON dynstat_wvel_min             =  -2.5895245028513E-03
(PID.TID 0000.0001) %MON dynstat_wvel_mean            =   4.6344081234905E-10
(PID.TID 0000.0001) %MON dynstat_wvel_sd              =   3.3354293772098E-05
(PID.TID 0000.0001) %MON dynstat_wvel_del2            =   1.2995951413172E-07
(PID.TID 0000.0001) %MON dynstat_theta_max            =   1.2000000000000E+00
(PID.TID 0000.0001) %MON dynstat_theta_min            =  -1.0000000000000E+00
(PID.TID 0000.0001) %MON dynstat_theta_mean           =   5.6492503824560E-01
(PID.TID 0000.0001) %MON dynstat_theta_sd             =   8.4884717205866E-01
(PID.TID 0000.0001) %MON dynstat_theta_del2           =   4.7604006020061E-06
(PID.TID 0000.0001) %MON dynstat_salt_max             =   3.4700000000000E+01
(PID.TID 0000.0001) %MON dynstat_salt_min             =   3.4000000000000E+01
(PID.TID 0000.0001) %MON dynstat_salt_mean            =   3.4497884099691E+01
(PID.TID 0000.0001) %MON dynstat_salt_sd              =   2.7007782549986E-01
(PID.TID 0000.0001) %MON dynstat_salt_del2            =   1.8853621896162E-06
(PID.TID 0000.0001) %MON advcfl_uvel_max              =   5.1140057114995E-03
(PID.TID 0000.0001) %MON advcfl_vvel_max              =   3.1351300603523E-03
(PID.TID 0000.0001) %MON advcfl_wvel_max              =   1.2947622514257E-02
(PID.TID 0000.0001) %MON advcfl_W_hf_max              =   1.2947622514257E-02
(PID.TID 0000.0001) %MON pe_b_mean                    =  -6.8148661375510E-01
(PID.TID 0000.0001) %MON ke_max                       =   1.2065028454457E-03
(PID.TID 0000.0001) %MON ke_mean                      =   1.2734841517597E-06
(PID.TID 0000.0001) %MON ke_vol                       =   4.6183164331214E+12
(PID.TID 0000.0001) // =======================================================
(PID.TID 0000.0001) // End MONITOR dynamic field statistics
(PID.TID 0000.0001) // =======================================================
(PID.TID 0000.0001) // =======================================================
(PID.TID 0000.0001) // Begin OBCS MONITOR field statistics
(PID.TID 0000.0001) // =======================================================
(PID.TID 0000.0001) %MON obc_N_vVel_max               =   7.8286318767909E-08
(PID.TID 0000.0001) %MON obc_N_vVel_min               =   7.8286318767907E-08
(PID.TID 0000.0001) %MON obc_N_vVel_mean              =   7.8286318767909E-08
(PID.TID 0000.0001) %MON obc_N_vVel_sd                =  -1.3962838022412E-28
(PID.TID 0000.0001) %MON obc_N_vVel_Int               =   5.1668970386820E+00
(PID.TID 0000.0001) // =======================================================
(PID.TID 0000.0001) // End OBCS MONITOR field statistics
(PID.TID 0000.0001) // =======================================================
 cg2d: Sum(rhs),rhsMax =   3.00664805444777E+00  4.53040141557932E+02
(PID.TID 0000.0001)      cg2d_init_res =   5.29503952344887E-06
(PID.TID 0000.0001)      cg2d_iters(min,last) =      -1      78
(PID.TID 0000.0001)      cg2d_last_res =   8.42997215172819E-12
(PID.TID 0000.0001) // =======================================================
(PID.TID 0000.0001) // Begin MONITOR dynamic field statistics
(PID.TID 0000.0001) // =======================================================
(PID.TID 0000.0001) %MON time_tsnumber                =                  1396
(PID.TID 0000.0001) %MON time_secondsf                =   1.3960000000000E+05
(PID.TID 0000.0001) %MON dynstat_eta_max              =   5.7993442035512E+00
(PID.TID 0000.0001) %MON dynstat_eta_min              =  -1.4167255418075E+01
(PID.TID 0000.0001) %MON dynstat_eta_mean             =  -2.5224671485220E+00
(PID.TID 0000.0001) %MON dynstat_eta_sd               =   4.9406161046703E+00
(PID.TID 0000.0001) %MON dynstat_eta_del2             =   1.9059253554692E-01
(PID.TID 0000.0001) %MON dynstat_uvel_max             =   1.1345775848054E-02
(PID.TID 0000.0001) %MON dynstat_uvel_min             =  -5.1242377825121E-02
(PID.TID 0000.0001) %MON dynstat_uvel_mean            =   4.4512692630140E-09
(PID.TID 0000.0001) %MON dynstat_uvel_sd              =   1.4727244157106E-03
(PID.TID 0000.0001) %MON dynstat_uvel_del2            =   2.2790519079486E-06
(PID.TID 0000.0001) %MON dynstat_vvel_max             =   3.1394019444760E-02
(PID.TID 0000.0001) %MON dynstat_vvel_min             =  -1.4854562555708E-02
(PID.TID 0000.0001) %MON dynstat_vvel_mean            =   1.3235739578979E-07
(PID.TID 0000.0001) %MON dynstat_vvel_sd              =   6.5576806410695E-04
(PID.TID 0000.0001) %MON dynstat_vvel_del2            =   1.7249226315100E-06
(PID.TID 0000.0001) %MON dynstat_wvel_max             =   2.0049437024633E-03
(PID.TID 0000.0001) %MON dynstat_wvel_min             =  -2.5939504742002E-03
(PID.TID 0000.0001) %MON dynstat_wvel_mean            =   4.5834193953261E-10
(PID.TID 0000.0001) %MON dynstat_wvel_sd              =   3.3416168919428E-05
(PID.TID 0000.0001) %MON dynstat_wvel_del2            =   1.3015309169509E-07
(PID.TID 0000.0001) %MON dynstat_theta_max            =   1.2000000000000E+00
(PID.TID 0000.0001) %MON dynstat_theta_min            =  -1.0000000000000E+00
(PID.TID 0000.0001) %MON dynstat_theta_mean           =   5.6492398128971E-01
(PID.TID 0000.0001) %MON dynstat_theta_sd             =   8.4884669612716E-01
(PID.TID 0000.0001) %MON dynstat_theta_del2           =   4.7687786876892E-06
(PID.TID 0000.0001) %MON dynstat_salt_max             =   3.4700000000000E+01
(PID.TID 0000.0001) %MON dynstat_salt_min             =   3.4000000000000E+01
(PID.TID 0000.0001) %MON dynstat_salt_mean            =   3.4497883677210E+01
(PID.TID 0000.0001) %MON dynstat_salt_sd              =   2.7007764621189E-01
(PID.TID 0000.0001) %MON dynstat_salt_del2            =   1.8886949502393E-06
(PID.TID 0000.0001) %MON advcfl_uvel_max              =   5.1242377825121E-03
(PID.TID 0000.0001) %MON advcfl_vvel_max              =   3.1394019444760E-03
(PID.TID 0000.0001) %MON advcfl_wvel_max              =   1.2969752371001E-02
(PID.TID 0000.0001) %MON advcfl_W_hf_max              =   1.2969752371001E-02
(PID.TID 0000.0001) %MON pe_b_mean                    =  -6.8148377163495E-01
(PID.TID 0000.0001) %MON ke_max                       =   1.2118985610171E-03
(PID.TID 0000.0001) %MON ke_mean                      =   1.2790820911213E-06
(PID.TID 0000.0001) %MON ke_vol                       =   4.6183164890924E+12
(PID.TID 0000.0001) // =======================================================
(PID.TID 0000.0001) // End MONITOR dynamic field statistics
(PID.TID 0000.0001) // =======================================================
(PID.TID 0000.0001) // =======================================================
(PID.TID 0000.0001) // Begin OBCS MONITOR field statistics
(PID.TID 0000.0001) // =======================================================
(PID.TID 0000.0001) %MON obc_N_vVel_max               =   8.2073274564241E-08
(PID.TID 0000.0001) %MON obc_N_vVel_min               =   8.2073274564239E-08
(PID.TID 0000.0001) %MON obc_N_vVel_mean              =   8.2073274564241E-08
(PID.TID 0000.0001) %MON obc_N_vVel_sd                =  -2.6505726415426E-28
(PID.TID 0000.0001) %MON obc_N_vVel_Int               =   5.4168361212399E+00
(PID.TID 0000.0001) // =======================================================
(PID.TID 0000.0001) // End OBCS MONITOR field statistics
(PID.TID 0000.0001) // =======================================================
 cg2d: Sum(rhs),rhsMax =   3.00663692089012E+00  4.53040122173488E+02
(PID.TID 0000.0001)      cg2d_init_res =   5.30378701286740E-06
(PID.TID 0000.0001)      cg2d_iters(min,last) =      -1      78
(PID.TID 0000.0001)      cg2d_last_res =   8.44805705188182E-12
(PID.TID 0000.0001) // =======================================================
(PID.TID 0000.0001) // Begin MONITOR dynamic field statistics
(PID.TID 0000.0001) // =======================================================
(PID.TID 0000.0001) %MON time_tsnumber                =                  1397
(PID.TID 0000.0001) %MON time_secondsf                =   1.3970000000000E+05
(PID.TID 0000.0001) %MON dynstat_eta_max              =   5.7993471499916E+00
(PID.TID 0000.0001) %MON dynstat_eta_min              =  -1.4167234668810E+01
(PID.TID 0000.0001) %MON dynstat_eta_mean             =  -2.5224576999470E+00
(PID.TID 0000.0001) %MON dynstat_eta_sd               =   4.9406133957068E+00
(PID.TID 0000.0001) %MON dynstat_eta_del2             =   1.9059256443093E-01
(PID.TID 0000.0001) %MON dynstat_uvel_max             =   1.1368600913390E-02
(PID.TID 0000.0001) %MON dynstat_uvel_min             =  -5.1344836634957E-02
(PID.TID 0000.0001) %MON dynstat_uvel_mean            =   4.5005794875300E-09
(PID.TID 0000.0001) %MON dynstat_uvel_sd              =   1.4760303867617E-03
(PID.TID 0000.0001) %MON dynstat_uvel_del2            =   2.2843705996001E-06
(PID.TID 0000.0001) %MON dynstat_vvel_max             =   3.1436744189128E-02
(PID.TID 0000.0001) %MON dynstat_vvel_min             =  -1.4894517780851E-02
(PID.TID 0000.0001) %MON dynstat_vvel_mean            =   1.3513382155243E-07
(PID.TID 0000.0001) %MON dynstat_vvel_sd              =   6.5704425868681E-04
(PID.TID 0000.0001) %MON dynstat_vvel_del2            =   1.7280183098703E-06
(PID.TID 0000.0001) %MON dynstat_wvel_max             =   2.0084352991596E-03
(PID.TID 0000.0001) %MON dynstat_wvel_min             =  -2.5983671299331E-03
(PID.TID 0000.0001) %MON dynstat_wvel_mean            =   4.5298226173348E-10
(PID.TID 0000.0001) %MON dynstat_wvel_sd              =   3.3478342249082E-05
(PID.TID 0000.0001) %MON dynstat_wvel_del2            =   1.3034666400335E-07
(PID.TID 0000.0001) %MON dynstat_theta_max            =   1.2000000000000E+00
(PID.TID 0000.0001) %MON dynstat_theta_min            =  -1.0000000000000E+00
(PID.TID 0000.0001) %MON dynstat_theta_mean           =   5.6492292247152E-01
(PID.TID 0000.0001) %MON dynstat_theta_sd             =   8.4884621943124E-01
(PID.TID 0000.0001) %MON dynstat_theta_del2           =   4.7771665032608E-06
(PID.TID 0000.0001) %MON dynstat_salt_max             =   3.4700000000000E+01
(PID.TID 0000.0001) %MON dynstat_salt_min             =   3.4000000000000E+01
(PID.TID 0000.0001) %MON dynstat_salt_mean            =   3.4497883253983E+01
(PID.TID 0000.0001) %MON dynstat_salt_sd              =   2.7007746664344E-01
(PID.TID 0000.0001) %MON dynstat_salt_del2            =   1.8920316530090E-06
(PID.TID 0000.0001) %MON advcfl_uvel_max              =   5.1344836634957E-03
(PID.TID 0000.0001) %MON advcfl_vvel_max              =   3.1436744189128E-03
(PID.TID 0000.0001) %MON advcfl_wvel_max              =   1.2991835649666E-02
(PID.TID 0000.0001) %MON advcfl_W_hf_max              =   1.2991835649666E-02
(PID.TID 0000.0001) %MON pe_b_mean                    =  -6.8148092495011E-01
(PID.TID 0000.0001) %MON ke_max                       =   1.2173142353563E-03
(PID.TID 0000.0001) %MON ke_mean                      =   1.2847023905670E-06
(PID.TID 0000.0001) %MON ke_vol                       =   4.6183165451378E+12
(PID.TID 0000.0001) // =======================================================
(PID.TID 0000.0001) // End MONITOR dynamic field statistics
(PID.TID 0000.0001) // =======================================================
(PID.TID 0000.0001) // =======================================================
(PID.TID 0000.0001) // Begin OBCS MONITOR field statistics
(PID.TID 0000.0001) // =======================================================
(PID.TID 0000.0001) %MON obc_N_vVel_max               =   8.5163861611564E-08
(PID.TID 0000.0001) %MON obc_N_vVel_min               =   8.5163861611563E-08
(PID.TID 0000.0001) %MON obc_N_vVel_mean              =   8.5163861611564E-08
(PID.TID 0000.0001) %MON obc_N_vVel_sd                =  -2.3665827156630E-29
(PID.TID 0000.0001) %MON obc_N_vVel_Int               =   5.6208148663632E+00
(PID.TID 0000.0001) // =======================================================
(PID.TID 0000.0001) // End OBCS MONITOR field statistics
(PID.TID 0000.0001) // =======================================================
 cg2d: Sum(rhs),rhsMax =   3.00662577124818E+00  4.53040102665943E+02
(PID.TID 0000.0001)      cg2d_init_res =   5.31257437357514E-06
(PID.TID 0000.0001)      cg2d_iters(min,last) =      -1      78
(PID.TID 0000.0001)      cg2d_last_res =   8.46627916310831E-12
(PID.TID 0000.0001) // =======================================================
(PID.TID 0000.0001) // Begin MONITOR dynamic field statistics
(PID.TID 0000.0001) // =======================================================
(PID.TID 0000.0001) %MON time_tsnumber                =                  1398
(PID.TID 0000.0001) %MON time_secondsf                =   1.3980000000000E+05
(PID.TID 0000.0001) %MON dynstat_eta_max              =   5.7993500972229E+00
(PID.TID 0000.0001) %MON dynstat_eta_min              =  -1.4167213876446E+01
(PID.TID 0000.0001) %MON dynstat_eta_mean             =  -2.5224482371932E+00
(PID.TID 0000.0001) %MON dynstat_eta_sd               =   4.9406106818750E+00
(PID.TID 0000.0001) %MON dynstat_eta_del2             =   1.9059259335999E-01
(PID.TID 0000.0001) %MON dynstat_uvel_max             =   1.1391436260016E-02
(PID.TID 0000.0001) %MON dynstat_uvel_min             =  -5.1447433585959E-02
(PID.TID 0000.0001) %MON dynstat_uvel_mean            =   4.5517739834923E-09
(PID.TID 0000.0001) %MON dynstat_uvel_sd              =   1.4793422173511E-03
(PID.TID 0000.0001) %MON dynstat_uvel_del2            =   2.2897002510208E-06
(PID.TID 0000.0001) %MON dynstat_vvel_max             =   3.1479474795641E-02
(PID.TID 0000.0001) %MON dynstat_vvel_min             =  -1.4934545178816E-02
(PID.TID 0000.0001) %MON dynstat_vvel_mean            =   1.3710485800998E-07
(PID.TID 0000.0001) %MON dynstat_vvel_sd              =   6.5832284546240E-04
(PID.TID 0000.0001) %MON dynstat_vvel_del2            =   1.7311175013944E-06
(PID.TID 0000.0001) %MON dynstat_wvel_max             =   2.0119288632524E-03
(PID.TID 0000.0001) %MON dynstat_wvel_min             =  -2.6027743268247E-03
(PID.TID 0000.0001) %MON dynstat_wvel_mean            =   4.4747717287588E-10
(PID.TID 0000.0001) %MON dynstat_wvel_sd              =   3.3540880373562E-05
(PID.TID 0000.0001) %MON dynstat_wvel_del2            =   1.3054082760804E-07
(PID.TID 0000.0001) %MON dynstat_theta_max            =   1.2000000000000E+00
(PID.TID 0000.0001) %MON dynstat_theta_min            =  -1.0000000000000E+00
(PID.TID 0000.0001) %MON dynstat_theta_mean           =   5.6492186178944E-01
(PID.TID 0000.0001) %MON dynstat_theta_sd             =   8.4884574196984E-01
(PID.TID 0000.0001) %MON dynstat_theta_del2           =   4.7855639427857E-06
(PID.TID 0000.0001) %MON dynstat_salt_max             =   3.4700000000000E+01
(PID.TID 0000.0001) %MON dynstat_salt_min             =   3.4000000000000E+01
(PID.TID 0000.0001) %MON dynstat_salt_mean            =   3.4497882830011E+01
(PID.TID 0000.0001) %MON dynstat_salt_sd              =   2.7007728679437E-01
(PID.TID 0000.0001) %MON dynstat_salt_del2            =   1.8953722738848E-06
(PID.TID 0000.0001) %MON advcfl_uvel_max              =   5.1447433585959E-03
(PID.TID 0000.0001) %MON advcfl_vvel_max              =   3.1479474795641E-03
(PID.TID 0000.0001) %MON advcfl_wvel_max              =   1.3013871634124E-02
(PID.TID 0000.0001) %MON advcfl_W_hf_max              =   1.3013871634124E-02
(PID.TID 0000.0001) %MON pe_b_mean                    =  -6.8147807351867E-01
(PID.TID 0000.0001) %MON ke_max                       =   1.2227499210466E-03
(PID.TID 0000.0001) %MON ke_mean                      =   1.2903451226129E-06
(PID.TID 0000.0001) %MON ke_vol                       =   4.6183166012623E+12
(PID.TID 0000.0001) // =======================================================
(PID.TID 0000.0001) // End MONITOR dynamic field statistics
(PID.TID 0000.0001) // =======================================================
(PID.TID 0000.0001) // =======================================================
(PID.TID 0000.0001) // Begin OBCS MONITOR field statistics
(PID.TID 0000.0001) // =======================================================
(PID.TID 0000.0001) %MON obc_N_vVel_max               =   8.7511205362193E-08
(PID.TID 0000.0001) %MON obc_N_vVel_min               =   8.7511205362191E-08
(PID.TID 0000.0001) %MON obc_N_vVel_mean              =   8.7511205362191E-08
(PID.TID 0000.0001) %MON obc_N_vVel_sd                =   2.2886756892726E-14
(PID.TID 0000.0001) %MON obc_N_vVel_Int               =   5.7757395539046E+00
(PID.TID 0000.0001) // =======================================================
(PID.TID 0000.0001) // End OBCS MONITOR field statistics
(PID.TID 0000.0001) // =======================================================
 cg2d: Sum(rhs),rhsMax =   3.00661460453632E+00  4.53040083024020E+02
(PID.TID 0000.0001)      cg2d_init_res =   5.32142162587574E-06
(PID.TID 0000.0001)      cg2d_iters(min,last) =      -1      78
(PID.TID 0000.0001)      cg2d_last_res =   8.48463305913192E-12
(PID.TID 0000.0001) // =======================================================
(PID.TID 0000.0001) // Begin MONITOR dynamic field statistics
(PID.TID 0000.0001) // =======================================================
(PID.TID 0000.0001) %MON time_tsnumber                =                  1399
(PID.TID 0000.0001) %MON time_secondsf                =   1.3990000000000E+05
(PID.TID 0000.0001) %MON dynstat_eta_max              =   5.7993530467085E+00
(PID.TID 0000.0001) %MON dynstat_eta_min              =  -1.4167193039145E+01
(PID.TID 0000.0001) %MON dynstat_eta_mean             =  -2.5224387593710E+00
(PID.TID 0000.0001) %MON dynstat_eta_sd               =   4.9406079628681E+00
(PID.TID 0000.0001) %MON dynstat_eta_del2             =   1.9059262233372E-01
(PID.TID 0000.0001) %MON dynstat_uvel_max             =   1.1414281627709E-02
(PID.TID 0000.0001) %MON dynstat_uvel_min             =  -5.1550168715678E-02
(PID.TID 0000.0001) %MON dynstat_uvel_mean            =   4.6041381917147E-09
(PID.TID 0000.0001) %MON dynstat_uvel_sd              =   1.4826599094397E-03
(PID.TID 0000.0001) %MON dynstat_uvel_del2            =   2.2950408763449E-06
(PID.TID 0000.0001) %MON dynstat_vvel_max             =   3.1522211231795E-02
(PID.TID 0000.0001) %MON dynstat_vvel_min             =  -1.4974644771097E-02
(PID.TID 0000.0001) %MON dynstat_vvel_mean            =   1.3824806376543E-07
(PID.TID 0000.0001) %MON dynstat_vvel_sd              =   6.5960382522813E-04
(PID.TID 0000.0001) %MON dynstat_vvel_del2            =   1.7342203276709E-06
(PID.TID 0000.0001) %MON dynstat_wvel_max             =   2.0154243829334E-03
(PID.TID 0000.0001) %MON dynstat_wvel_min             =  -2.6071719429249E-03
(PID.TID 0000.0001) %MON dynstat_wvel_mean            =   4.4196116893701E-10
(PID.TID 0000.0001) %MON dynstat_wvel_sd              =   3.3603840393739E-05
(PID.TID 0000.0001) %MON dynstat_wvel_del2            =   1.3073615546302E-07
(PID.TID 0000.0001) %MON dynstat_theta_max            =   1.2000000000000E+00
(PID.TID 0000.0001) %MON dynstat_theta_min            =  -1.0000000000000E+00
(PID.TID 0000.0001) %MON dynstat_theta_mean           =   5.6492079924179E-01
(PID.TID 0000.0001) %MON dynstat_theta_sd             =   8.4884526374226E-01
(PID.TID 0000.0001) %MON dynstat_theta_del2           =   4.7939709275993E-06
(PID.TID 0000.0001) %MON dynstat_salt_max             =   3.4700000000000E+01
(PID.TID 0000.0001) %MON dynstat_salt_min             =   3.4000000000000E+01
(PID.TID 0000.0001) %MON dynstat_salt_mean            =   3.4497882405292E+01
(PID.TID 0000.0001) %MON dynstat_salt_sd              =   2.7007710666442E-01
(PID.TID 0000.0001) %MON dynstat_salt_del2            =   1.8987167296312E-06
(PID.TID 0000.0001) %MON advcfl_uvel_max              =   5.1550168715678E-03
(PID.TID 0000.0001) %MON advcfl_vvel_max              =   3.1522211231795E-03
(PID.TID 0000.0001) %MON advcfl_wvel_max              =   1.3035859714625E-02
(PID.TID 0000.0001) %MON advcfl_W_hf_max              =   1.3035859714625E-02
(PID.TID 0000.0001) %MON pe_b_mean                    =  -6.8147521715504E-01
(PID.TID 0000.0001) %MON ke_max                       =   1.2282056713639E-03
(PID.TID 0000.0001) %MON ke_mean                      =   1.2960103569265E-06
(PID.TID 0000.0001) %MON ke_vol                       =   4.6183166574711E+12
(PID.TID 0000.0001) // =======================================================
(PID.TID 0000.0001) // End MONITOR dynamic field statistics
(PID.TID 0000.0001) // =======================================================
(PID.TID 0000.0001) // =======================================================
(PID.TID 0000.0001) // Begin OBCS MONITOR field statistics
(PID.TID 0000.0001) // =======================================================
(PID.TID 0000.0001) %MON obc_N_vVel_max               =   8.9082325821929E-08
(PID.TID 0000.0001) %MON obc_N_vVel_min               =   8.9082325821927E-08
(PID.TID 0000.0001) %MON obc_N_vVel_mean              =   8.9082325821927E-08
(PID.TID 0000.0001) %MON obc_N_vVel_sd                =   1.5587468005038E-14
(PID.TID 0000.0001) %MON obc_N_vVel_Int               =   5.8794335042472E+00
(PID.TID 0000.0001) // =======================================================
(PID.TID 0000.0001) // End OBCS MONITOR field statistics
(PID.TID 0000.0001) // =======================================================
 cg2d: Sum(rhs),rhsMax =   3.00660341973856E+00  4.53040063238115E+02
(PID.TID 0000.0001)      cg2d_init_res =   5.33032285106613E-06
(PID.TID 0000.0001)      cg2d_iters(min,last) =      -1      78
(PID.TID 0000.0001)      cg2d_last_res =   8.50309574097785E-12
(PID.TID 0000.0001) // =======================================================
(PID.TID 0000.0001) // Begin MONITOR dynamic field statistics
(PID.TID 0000.0001) // =======================================================
(PID.TID 0000.0001) %MON time_tsnumber                =                  1400
(PID.TID 0000.0001) %MON time_secondsf                =   1.4000000000000E+05
(PID.TID 0000.0001) %MON dynstat_eta_max              =   5.7993559999273E+00
(PID.TID 0000.0001) %MON dynstat_eta_min              =  -1.4167172155053E+01
(PID.TID 0000.0001) %MON dynstat_eta_mean             =  -2.5224292655746E+00
(PID.TID 0000.0001) %MON dynstat_eta_sd               =   4.9406052383846E+00
(PID.TID 0000.0001) %MON dynstat_eta_del2             =   1.9059265135149E-01
(PID.TID 0000.0001) %MON dynstat_uvel_max             =   1.1437136748978E-02
(PID.TID 0000.0001) %MON dynstat_uvel_min             =  -5.1653042052736E-02
(PID.TID 0000.0001) %MON dynstat_uvel_mean            =   4.6569413840446E-09
(PID.TID 0000.0001) %MON dynstat_uvel_sd              =   1.4859834650585E-03
(PID.TID 0000.0001) %MON dynstat_uvel_del2            =   2.3003924899972E-06
(PID.TID 0000.0001) %MON dynstat_vvel_max             =   3.1564953464730E-02
(PID.TID 0000.0001) %MON dynstat_vvel_min             =  -1.5014816581523E-02
(PID.TID 0000.0001) %MON dynstat_vvel_mean            =   1.3855775414221E-07
(PID.TID 0000.0001) %MON dynstat_vvel_sd              =   6.6088719327258E-04
(PID.TID 0000.0001) %MON dynstat_vvel_del2            =   1.7373268878497E-06
(PID.TID 0000.0001) %MON dynstat_wvel_max             =   2.0189218466561E-03
(PID.TID 0000.0001) %MON dynstat_wvel_min             =  -2.6115598508797E-03
(PID.TID 0000.0001) %MON dynstat_wvel_mean            =   4.3654916315281E-10
(PID.TID 0000.0001) %MON dynstat_wvel_sd              =   3.3667264008689E-05
(PID.TID 0000.0001) %MON dynstat_wvel_del2            =   1.3093314803726E-07
(PID.TID 0000.0001) %MON dynstat_theta_max            =   1.2000000000000E+00
(PID.TID 0000.0001) %MON dynstat_theta_min            =  -1.0000000000000E+00
(PID.TID 0000.0001) %MON dynstat_theta_mean           =   5.6491973482695E-01
(PID.TID 0000.0001) %MON dynstat_theta_sd             =   8.4884478474729E-01
(PID.TID 0000.0001) %MON dynstat_theta_del2           =   4.8023874066594E-06
(PID.TID 0000.0001) %MON dynstat_salt_max             =   3.4700000000000E+01
(PID.TID 0000.0001) %MON dynstat_salt_min             =   3.4000000000000E+01
(PID.TID 0000.0001) %MON dynstat_salt_mean            =   3.4497881979826E+01
(PID.TID 0000.0001) %MON dynstat_salt_sd              =   2.7007692625333E-01
(PID.TID 0000.0001) %MON dynstat_salt_del2            =   1.9020649505794E-06
(PID.TID 0000.0001) %MON advcfl_uvel_max              =   5.1653042052736E-03
(PID.TID 0000.0001) %MON advcfl_vvel_max              =   3.1564953464730E-03
(PID.TID 0000.0001) %MON advcfl_wvel_max              =   1.3057799254398E-02
(PID.TID 0000.0001) %MON advcfl_W_hf_max              =   1.3057799254398E-02
(PID.TID 0000.0001) %MON pe_b_mean                    =  -6.8147235567343E-01
(PID.TID 0000.0001) %MON ke_max                       =   1.2336815394386E-03
(PID.TID 0000.0001) %MON ke_mean                      =   1.3016981597913E-06
(PID.TID 0000.0001) %MON ke_vol                       =   4.6183167137693E+12
(PID.TID 0000.0001) // =======================================================
(PID.TID 0000.0001) // End MONITOR dynamic field statistics
(PID.TID 0000.0001) // =======================================================
(PID.TID 0000.0001) // =======================================================
(PID.TID 0000.0001) // Begin OBCS MONITOR field statistics
(PID.TID 0000.0001) // =======================================================
(PID.TID 0000.0001) %MON obc_N_vVel_max               =   8.9861857660556E-08
(PID.TID 0000.0001) %MON obc_N_vVel_min               =   8.9861857660555E-08
(PID.TID 0000.0001) %MON obc_N_vVel_mean              =   8.9861857660556E-08
(PID.TID 0000.0001) %MON obc_N_vVel_sd                =  -8.2041534142985E-29
(PID.TID 0000.0001) %MON obc_N_vVel_Int               =   5.9308826055967E+00
(PID.TID 0000.0001) // =======================================================
(PID.TID 0000.0001) // End OBCS MONITOR field statistics
(PID.TID 0000.0001) // =======================================================
 cg2d: Sum(rhs),rhsMax =   3.00659221582193E+00  4.53040043300932E+02
(PID.TID 0000.0001)      cg2d_init_res =   5.33927852987098E-06
(PID.TID 0000.0001)      cg2d_iters(min,last) =      -1      78
(PID.TID 0000.0001)      cg2d_last_res =   8.52167372068714E-12
(PID.TID 0000.0001) // =======================================================
(PID.TID 0000.0001) // Begin MONITOR dynamic field statistics
(PID.TID 0000.0001) // =======================================================
(PID.TID 0000.0001) %MON time_tsnumber                =                  1401
(PID.TID 0000.0001) %MON time_secondsf                =   1.4010000000000E+05
(PID.TID 0000.0001) %MON dynstat_eta_max              =   5.7993589583390E+00
(PID.TID 0000.0001) %MON dynstat_eta_min              =  -1.4167151222360E+01
(PID.TID 0000.0001) %MON dynstat_eta_mean             =  -2.5224197548967E+00
(PID.TID 0000.0001) %MON dynstat_eta_sd               =   4.9406025081372E+00
(PID.TID 0000.0001) %MON dynstat_eta_del2             =   1.9059268041276E-01
(PID.TID 0000.0001) %MON dynstat_uvel_max             =   1.1460001354083E-02
(PID.TID 0000.0001) %MON dynstat_uvel_min             =  -5.1756053616944E-02
(PID.TID 0000.0001) %MON dynstat_uvel_mean            =   4.7094506792493E-09
(PID.TID 0000.0001) %MON dynstat_uvel_sd              =   1.4893128863003E-03
(PID.TID 0000.0001) %MON dynstat_uvel_del2            =   2.3057551065953E-06
(PID.TID 0000.0001) %MON dynstat_vvel_max             =   3.1607701463038E-02
(PID.TID 0000.0001) %MON dynstat_vvel_min             =  -1.5055060632536E-02
(PID.TID 0000.0001) %MON dynstat_vvel_mean            =   1.3804489694429E-07
(PID.TID 0000.0001) %MON dynstat_vvel_sd              =   6.6217293885310E-04
(PID.TID 0000.0001) %MON dynstat_vvel_del2            =   1.7404372507740E-06
(PID.TID 0000.0001) %MON dynstat_wvel_max             =   2.0224212427169E-03
(PID.TID 0000.0001) %MON dynstat_wvel_min             =  -2.6159379237467E-03
(PID.TID 0000.0001) %MON dynstat_wvel_mean            =   4.3135881992896E-10
(PID.TID 0000.0001) %MON dynstat_wvel_sd              =   3.3731172756913E-05
(PID.TID 0000.0001) %MON dynstat_wvel_del2            =   1.3113219053320E-07
(PID.TID 0000.0001) %MON dynstat_theta_max            =   1.2000000000000E+00
(PID.TID 0000.0001) %MON dynstat_theta_min            =  -1.0000000000000E+00
(PID.TID 0000.0001) %MON dynstat_theta_mean           =   5.6491866854319E-01
(PID.TID 0000.0001) %MON dynstat_theta_sd             =   8.4884430498242E-01
(PID.TID 0000.0001) %MON dynstat_theta_del2           =   4.8108133577614E-06
(PID.TID 0000.0001) %MON dynstat_salt_max             =   3.4700000000000E+01
(PID.TID 0000.0001) %MON dynstat_salt_min             =   3.4000000000000E+01
(PID.TID 0000.0001) %MON dynstat_salt_mean            =   3.4497881553611E+01
(PID.TID 0000.0001) %MON dynstat_salt_sd              =   2.7007674556055E-01
(PID.TID 0000.0001) %MON dynstat_salt_del2            =   1.9054170644963E-06
(PID.TID 0000.0001) %MON advcfl_uvel_max              =   5.1756053616944E-03
(PID.TID 0000.0001) %MON advcfl_vvel_max              =   3.1607701463038E-03
(PID.TID 0000.0001) %MON advcfl_wvel_max              =   1.3079689618734E-02
(PID.TID 0000.0001) %MON advcfl_W_hf_max              =   1.3079689618734E-02
(PID.TID 0000.0001) %MON pe_b_mean                    =  -6.8146948889117E-01
(PID.TID 0000.0001) %MON ke_max                       =   1.2391775783922E-03
(PID.TID 0000.0001) %MON ke_mean                      =   1.3074085937117E-06
(PID.TID 0000.0001) %MON ke_vol                       =   4.6183167701625E+12
(PID.TID 0000.0001) // =======================================================
(PID.TID 0000.0001) // End MONITOR dynamic field statistics
(PID.TID 0000.0001) // =======================================================
(PID.TID 0000.0001) // =======================================================
(PID.TID 0000.0001) // Begin OBCS MONITOR field statistics
(PID.TID 0000.0001) // =======================================================
(PID.TID 0000.0001) %MON obc_N_vVel_max               =   8.9849479834330E-08
(PID.TID 0000.0001) %MON obc_N_vVel_min               =   8.9849479834327E-08
(PID.TID 0000.0001) %MON obc_N_vVel_mean              =   8.9849479834327E-08
(PID.TID 0000.0001) %MON obc_N_vVel_sd                =   1.6758116906702E-14
(PID.TID 0000.0001) %MON obc_N_vVel_Int               =   5.9300656690656E+00
(PID.TID 0000.0001) // =======================================================
(PID.TID 0000.0001) // End OBCS MONITOR field statistics
(PID.TID 0000.0001) // =======================================================
 cg2d: Sum(rhs),rhsMax =   3.00658099175613E+00  4.53040023207663E+02
(PID.TID 0000.0001)      cg2d_init_res =   5.34831089543086E-06
(PID.TID 0000.0001)      cg2d_iters(min,last) =      -1      78
(PID.TID 0000.0001)      cg2d_last_res =   8.54044911496553E-12
(PID.TID 0000.0001) // =======================================================
(PID.TID 0000.0001) // Begin MONITOR dynamic field statistics
(PID.TID 0000.0001) // =======================================================
(PID.TID 0000.0001) %MON time_tsnumber                =                  1402
(PID.TID 0000.0001) %MON time_secondsf                =   1.4020000000000E+05
(PID.TID 0000.0001) %MON dynstat_eta_max              =   5.7993619233547E+00
(PID.TID 0000.0001) %MON dynstat_eta_min              =  -1.4167130239305E+01
(PID.TID 0000.0001) %MON dynstat_eta_mean             =  -2.5224102264461E+00
(PID.TID 0000.0001) %MON dynstat_eta_sd               =   4.9405997718643E+00
(PID.TID 0000.0001) %MON dynstat_eta_del2             =   1.9059270951763E-01
(PID.TID 0000.0001) %MON dynstat_uvel_max             =   1.1482875170983E-02
(PID.TID 0000.0001) %MON dynstat_uvel_min             =  -5.1859203418910E-02
(PID.TID 0000.0001) %MON dynstat_uvel_mean            =   4.7609416917624E-09
(PID.TID 0000.0001) %MON dynstat_uvel_sd              =   1.4926481752952E-03
(PID.TID 0000.0001) %MON dynstat_uvel_del2            =   2.3111287403704E-06
(PID.TID 0000.0001) %MON dynstat_vvel_max             =   3.1650455197182E-02
(PID.TID 0000.0001) %MON dynstat_vvel_min             =  -1.5095376933473E-02
(PID.TID 0000.0001) %MON dynstat_vvel_mean            =   1.3673672553595E-07
(PID.TID 0000.0001) %MON dynstat_vvel_sd              =   6.6346104494563E-04
(PID.TID 0000.0001) %MON dynstat_vvel_del2            =   1.7435514509707E-06
(PID.TID 0000.0001) %MON dynstat_wvel_max             =   2.0259225592460E-03
(PID.TID 0000.0001) %MON dynstat_wvel_min             =  -2.6203060345612E-03
(PID.TID 0000.0001) %MON dynstat_wvel_mean            =   4.2650319260196E-10
(PID.TID 0000.0001) %MON dynstat_wvel_sd              =   3.3795564700334E-05
(PID.TID 0000.0001) %MON dynstat_wvel_del2            =   1.3133351924996E-07
(PID.TID 0000.0001) %MON dynstat_theta_max            =   1.2000000000000E+00
(PID.TID 0000.0001) %MON dynstat_theta_min            =  -1.0000000000000E+00
(PID.TID 0000.0001) %MON dynstat_theta_mean           =   5.6491760038867E-01
(PID.TID 0000.0001) %MON dynstat_theta_sd             =   8.4884382444523E-01
(PID.TID 0000.0001) %MON dynstat_theta_del2           =   4.8192482853068E-06
(PID.TID 0000.0001) %MON dynstat_salt_max             =   3.4700000000000E+01
(PID.TID 0000.0001) %MON dynstat_salt_min             =   3.4000000000000E+01
(PID.TID 0000.0001) %MON dynstat_salt_mean            =   3.4497881126648E+01
(PID.TID 0000.0001) %MON dynstat_salt_sd              =   2.7007656458533E-01
(PID.TID 0000.0001) %MON dynstat_salt_del2            =   1.9087730848567E-06
(PID.TID 0000.0001) %MON advcfl_uvel_max              =   5.1859203418910E-03
(PID.TID 0000.0001) %MON advcfl_vvel_max              =   3.1650455197182E-03
(PID.TID 0000.0001) %MON advcfl_wvel_max              =   1.3101530172806E-02
(PID.TID 0000.0001) %MON advcfl_W_hf_max              =   1.3101530172806E-02
(PID.TID 0000.0001) %MON pe_b_mean                    =  -6.8146661663221E-01
(PID.TID 0000.0001) %MON ke_max                       =   1.2446938413155E-03
(PID.TID 0000.0001) %MON ke_mean                      =   1.3131417171753E-06
(PID.TID 0000.0001) %MON ke_vol                       =   4.6183168266559E+12
(PID.TID 0000.0001) // =======================================================
(PID.TID 0000.0001) // End MONITOR dynamic field statistics
(PID.TID 0000.0001) // =======================================================
(PID.TID 0000.0001) // =======================================================
(PID.TID 0000.0001) // Begin OBCS MONITOR field statistics
(PID.TID 0000.0001) // =======================================================
(PID.TID 0000.0001) %MON obc_N_vVel_max               =   8.9060507977723E-08
(PID.TID 0000.0001) %MON obc_N_vVel_min               =   8.9060507977721E-08
(PID.TID 0000.0001) %MON obc_N_vVel_mean              =   8.9060507977723E-08
(PID.TID 0000.0001) %MON obc_N_vVel_sd                =  -3.2027752751973E-28
(PID.TID 0000.0001) %MON obc_N_vVel_Int               =   5.8779935265297E+00
(PID.TID 0000.0001) // =======================================================
(PID.TID 0000.0001) // End OBCS MONITOR field statistics
(PID.TID 0000.0001) // =======================================================
 cg2d: Sum(rhs),rhsMax =   3.00656974653509E+00  4.53040002956172E+02
(PID.TID 0000.0001)      cg2d_init_res =   5.35738904310912E-06
(PID.TID 0000.0001)      cg2d_iters(min,last) =      -1      78
(PID.TID 0000.0001)      cg2d_last_res =   8.55934095905722E-12
(PID.TID 0000.0001) // =======================================================
(PID.TID 0000.0001) // Begin MONITOR dynamic field statistics
(PID.TID 0000.0001) // =======================================================
(PID.TID 0000.0001) %MON time_tsnumber                =                  1403
(PID.TID 0000.0001) %MON time_secondsf                =   1.4030000000000E+05
(PID.TID 0000.0001) %MON dynstat_eta_max              =   5.7993648963012E+00
(PID.TID 0000.0001) %MON dynstat_eta_min              =  -1.4167109204235E+01
(PID.TID 0000.0001) %MON dynstat_eta_mean             =  -2.5224006793670E+00
(PID.TID 0000.0001) %MON dynstat_eta_sd               =   4.9405970293246E+00
(PID.TID 0000.0001) %MON dynstat_eta_del2             =   1.9059273866567E-01
(PID.TID 0000.0001) %MON dynstat_uvel_max             =   1.1505757925430E-02
(PID.TID 0000.0001) %MON dynstat_uvel_min             =  -5.1962491459736E-02
(PID.TID 0000.0001) %MON dynstat_uvel_mean            =   4.8107237529782E-09
(PID.TID 0000.0001) %MON dynstat_uvel_sd              =   1.4959893341863E-03
(PID.TID 0000.0001) %MON dynstat_uvel_del2            =   2.3165134035082E-06
(PID.TID 0000.0001) %MON dynstat_vvel_max             =   3.1693214638840E-02
(PID.TID 0000.0001) %MON dynstat_vvel_min             =  -1.5135765486525E-02
(PID.TID 0000.0001) %MON dynstat_vvel_mean            =   1.3467606219811E-07
(PID.TID 0000.0001) %MON dynstat_vvel_sd              =   6.6475148839444E-04
(PID.TID 0000.0001) %MON dynstat_vvel_del2            =   1.7466694849906E-06
(PID.TID 0000.0001) %MON dynstat_wvel_max             =   2.0294257842087E-03
(PID.TID 0000.0001) %MON dynstat_wvel_min             =  -2.6246640562799E-03
(PID.TID 0000.0001) %MON dynstat_wvel_mean            =   4.2208847348970E-10
(PID.TID 0000.0001) %MON dynstat_wvel_sd              =   3.3860412847883E-05
(PID.TID 0000.0001) %MON dynstat_wvel_del2            =   1.3153719977741E-07
(PID.TID 0000.0001) %MON dynstat_theta_max            =   1.2000000000000E+00
(PID.TID 0000.0001) %MON dynstat_theta_min            =  -1.0000000000000E+00
(PID.TID 0000.0001) %MON dynstat_theta_mean           =   5.6491653036168E-01
(PID.TID 0000.0001) %MON dynstat_theta_sd             =   8.4884334313344E-01
(PID.TID 0000.0001) %MON dynstat_theta_del2           =   4.8276927721993E-06
(PID.TID 0000.0001) %MON dynstat_salt_max             =   3.4700000000000E+01
(PID.TID 0000.0001) %MON dynstat_salt_min             =   3.4000000000000E+01
(PID.TID 0000.0001) %MON dynstat_salt_mean            =   3.4497880698935E+01
(PID.TID 0000.0001) %MON dynstat_salt_sd              =   2.7007638332700E-01
(PID.TID 0000.0001) %MON dynstat_salt_del2            =   1.9121329278352E-06
(PID.TID 0000.0001) %MON advcfl_uvel_max              =   5.1962491459736E-03
(PID.TID 0000.0001) %MON advcfl_vvel_max              =   3.1693214638840E-03
(PID.TID 0000.0001) %MON advcfl_wvel_max              =   1.3123320281400E-02
(PID.TID 0000.0001) %MON advcfl_W_hf_max              =   1.3123320281400E-02
(PID.TID 0000.0001) %MON pe_b_mean                    =  -6.8146373873069E-01
(PID.TID 0000.0001) %MON ke_max                       =   1.2502303812658E-03
(PID.TID 0000.0001) %MON ke_mean                      =   1.3188975846739E-06
(PID.TID 0000.0001) %MON ke_vol                       =   4.6183168832549E+12
(PID.TID 0000.0001) // =======================================================
(PID.TID 0000.0001) // End MONITOR dynamic field statistics
(PID.TID 0000.0001) // =======================================================
(PID.TID 0000.0001) // =======================================================
(PID.TID 0000.0001) // Begin OBCS MONITOR field statistics
(PID.TID 0000.0001) // =======================================================
(PID.TID 0000.0001) %MON obc_N_vVel_max               =   8.7525602332545E-08
(PID.TID 0000.0001) %MON obc_N_vVel_min               =   8.7525602332544E-08
(PID.TID 0000.0001) %MON obc_N_vVel_mean              =   8.7525602332545E-08
(PID.TID 0000.0001) %MON obc_N_vVel_sd                =  -1.6723851190685E-28
(PID.TID 0000.0001) %MON obc_N_vVel_Int               =   5.7766897539479E+00
(PID.TID 0000.0001) // =======================================================
(PID.TID 0000.0001) // End OBCS MONITOR field statistics
(PID.TID 0000.0001) // =======================================================
 cg2d: Sum(rhs),rhsMax =   3.00655847919592E+00  4.53039982547007E+02
(PID.TID 0000.0001)      cg2d_init_res =   5.36654011037398E-06
(PID.TID 0000.0001)      cg2d_iters(min,last) =      -1      78
(PID.TID 0000.0001)      cg2d_last_res =   8.57845412938798E-12
(PID.TID 0000.0001) // =======================================================
(PID.TID 0000.0001) // Begin MONITOR dynamic field statistics
(PID.TID 0000.0001) // =======================================================
(PID.TID 0000.0001) %MON time_tsnumber                =                  1404
(PID.TID 0000.0001) %MON time_secondsf                =   1.4040000000000E+05
(PID.TID 0000.0001) %MON dynstat_eta_max              =   5.7993678784112E+00
(PID.TID 0000.0001) %MON dynstat_eta_min              =  -1.4167088115609E+01
(PID.TID 0000.0001) %MON dynstat_eta_mean             =  -2.5223911128546E+00
(PID.TID 0000.0001) %MON dynstat_eta_sd               =   4.9405942803128E+00
(PID.TID 0000.0001) %MON dynstat_eta_del2             =   1.9059276785709E-01
(PID.TID 0000.0001) %MON dynstat_uvel_max             =   1.1528649340786E-02
(PID.TID 0000.0001) %MON dynstat_uvel_min             =  -5.2065917730739E-02
(PID.TID 0000.0001) %MON dynstat_uvel_mean            =   4.8581511417397E-09
(PID.TID 0000.0001) %MON dynstat_uvel_sd              =   1.4993363652012E-03
(PID.TID 0000.0001) %MON dynstat_uvel_del2            =   2.3219091133679E-06
(PID.TID 0000.0001) %MON dynstat_vvel_max             =   3.1735979761018E-02
(PID.TID 0000.0001) %MON dynstat_vvel_min             =  -1.5176226286865E-02
(PID.TID 0000.0001) %MON dynstat_vvel_mean            =   1.3192033324740E-07
(PID.TID 0000.0001) %MON dynstat_vvel_sd              =   6.6604424032516E-04
(PID.TID 0000.0001) %MON dynstat_vvel_del2            =   1.7497913107000E-06
(PID.TID 0000.0001) %MON dynstat_wvel_max             =   2.0329309054068E-03
(PID.TID 0000.0001) %MON dynstat_wvel_min             =  -2.6290118617779E-03
(PID.TID 0000.0001) %MON dynstat_wvel_mean            =   4.1821045050207E-10
(PID.TID 0000.0001) %MON dynstat_wvel_sd              =   3.3925665592533E-05
(PID.TID 0000.0001) %MON dynstat_wvel_del2            =   1.3174312031929E-07
(PID.TID 0000.0001) %MON dynstat_theta_max            =   1.2000000000000E+00
(PID.TID 0000.0001) %MON dynstat_theta_min            =  -1.0000000000000E+00
(PID.TID 0000.0001) %MON dynstat_theta_mean           =   5.6491545846057E-01
(PID.TID 0000.0001) %MON dynstat_theta_sd             =   8.4884286104505E-01
(PID.TID 0000.0001) %MON dynstat_theta_del2           =   4.8361469437330E-06
(PID.TID 0000.0001) %MON dynstat_salt_max             =   3.4700000000000E+01
(PID.TID 0000.0001) %MON dynstat_salt_min             =   3.4000000000000E+01
(PID.TID 0000.0001) %MON dynstat_salt_mean            =   3.4497880270471E+01
(PID.TID 0000.0001) %MON dynstat_salt_sd              =   2.7007620178476E-01
(PID.TID 0000.0001) %MON dynstat_salt_del2            =   1.9154965681041E-06
(PID.TID 0000.0001) %MON advcfl_uvel_max              =   5.2065917730739E-03
(PID.TID 0000.0001) %MON advcfl_vvel_max              =   3.1735979761018E-03
(PID.TID 0000.0001) %MON advcfl_wvel_max              =   1.3145059308889E-02
(PID.TID 0000.0001) %MON advcfl_W_hf_max              =   1.3145059308889E-02
(PID.TID 0000.0001) %MON pe_b_mean                    =  -6.8146085503424E-01
(PID.TID 0000.0001) %MON ke_max                       =   1.2557872512510E-03
(PID.TID 0000.0001) %MON ke_mean                      =   1.3246762470450E-06
(PID.TID 0000.0001) %MON ke_vol                       =   4.6183169399646E+12
(PID.TID 0000.0001) // =======================================================
(PID.TID 0000.0001) // End MONITOR dynamic field statistics
(PID.TID 0000.0001) // =======================================================
(PID.TID 0000.0001) // =======================================================
(PID.TID 0000.0001) // Begin OBCS MONITOR field statistics
(PID.TID 0000.0001) // =======================================================
(PID.TID 0000.0001) %MON obc_N_vVel_max               =   8.5290079424299E-08
(PID.TID 0000.0001) %MON obc_N_vVel_min               =   8.5290079424299E-08
(PID.TID 0000.0001) %MON obc_N_vVel_mean              =   8.5290079424299E-08
(PID.TID 0000.0001) %MON obc_N_vVel_sd                =  -3.5972057278078E-28
(PID.TID 0000.0001) %MON obc_N_vVel_Int               =   5.6291452420037E+00
(PID.TID 0000.0001) // =======================================================
(PID.TID 0000.0001) // End OBCS MONITOR field statistics
(PID.TID 0000.0001) // =======================================================
 cg2d: Sum(rhs),rhsMax =   3.00654718883400E+00  4.53039961983453E+02
(PID.TID 0000.0001)      cg2d_init_res =   5.37574118468042E-06
(PID.TID 0000.0001)      cg2d_iters(min,last) =      -1      78
(PID.TID 0000.0001)      cg2d_last_res =   8.59774072149401E-12
(PID.TID 0000.0001) // =======================================================
(PID.TID 0000.0001) // Begin MONITOR dynamic field statistics
(PID.TID 0000.0001) // =======================================================
(PID.TID 0000.0001) %MON time_tsnumber                =                  1405
(PID.TID 0000.0001) %MON time_secondsf                =   1.4050000000000E+05
(PID.TID 0000.0001) %MON dynstat_eta_max              =   5.7993708707812E+00
(PID.TID 0000.0001) %MON dynstat_eta_min              =  -1.4167066972052E+01
(PID.TID 0000.0001) %MON dynstat_eta_mean             =  -2.5223815261682E+00
(PID.TID 0000.0001) %MON dynstat_eta_sd               =   4.9405915246551E+00
(PID.TID 0000.0001) %MON dynstat_eta_del2             =   1.9059279709202E-01
(PID.TID 0000.0001) %MON dynstat_uvel_max             =   1.1551549138269E-02
(PID.TID 0000.0001) %MON dynstat_uvel_min             =  -5.2169482213286E-02
(PID.TID 0000.0001) %MON dynstat_uvel_mean            =   4.9026293182714E-09
(PID.TID 0000.0001) %MON dynstat_uvel_sd              =   1.5026892706028E-03
(PID.TID 0000.0001) %MON dynstat_uvel_del2            =   2.3273158893647E-06
(PID.TID 0000.0001) %MON dynstat_vvel_max             =   3.1778750538083E-02
(PID.TID 0000.0001) %MON dynstat_vvel_min             =  -1.5216759322698E-02
(PID.TID 0000.0001) %MON dynstat_vvel_mean            =   1.2854030476245E-07
(PID.TID 0000.0001) %MON dynstat_vvel_sd              =   6.6733926702393E-04
(PID.TID 0000.0001) %MON dynstat_vvel_del2            =   1.7529168510968E-06
(PID.TID 0000.0001) %MON dynstat_wvel_max             =   2.0364379104842E-03
(PID.TID 0000.0001) %MON dynstat_wvel_min             =  -2.6333493238479E-03
(PID.TID 0000.0001) %MON dynstat_wvel_mean            =   4.1495337540742E-10
(PID.TID 0000.0001) %MON dynstat_wvel_sd              =   3.3991248891739E-05
(PID.TID 0000.0001) %MON dynstat_wvel_del2            =   1.3195099756836E-07
(PID.TID 0000.0001) %MON dynstat_theta_max            =   1.2000000000000E+00
(PID.TID 0000.0001) %MON dynstat_theta_min            =  -1.0000000000000E+00
(PID.TID 0000.0001) %MON dynstat_theta_mean           =   5.6491438468356E-01
(PID.TID 0000.0001) %MON dynstat_theta_sd             =   8.4884237817726E-01
(PID.TID 0000.0001) %MON dynstat_theta_del2           =   4.8446109454601E-06
(PID.TID 0000.0001) %MON dynstat_salt_max             =   3.4700000000000E+01
(PID.TID 0000.0001) %MON dynstat_salt_min             =   3.4000000000000E+01
(PID.TID 0000.0001) %MON dynstat_salt_mean            =   3.4497879841256E+01
(PID.TID 0000.0001) %MON dynstat_salt_sd              =   2.7007601995807E-01
(PID.TID 0000.0001) %MON dynstat_salt_del2            =   1.9188641866382E-06
(PID.TID 0000.0001) %MON advcfl_uvel_max              =   5.2169482213286E-03
(PID.TID 0000.0001) %MON advcfl_vvel_max              =   3.1778750538083E-03
(PID.TID 0000.0001) %MON advcfl_wvel_max              =   1.3166746619240E-02
(PID.TID 0000.0001) %MON advcfl_W_hf_max              =   1.3166746619240E-02
(PID.TID 0000.0001) %MON pe_b_mean                    =  -6.8145796540604E-01
(PID.TID 0000.0001) %MON ke_max                       =   1.2613645042259E-03
(PID.TID 0000.0001) %MON ke_mean                      =   1.3304777519486E-06
(PID.TID 0000.0001) %MON ke_vol                       =   4.6183169967896E+12
(PID.TID 0000.0001) // =======================================================
(PID.TID 0000.0001) // End MONITOR dynamic field statistics
(PID.TID 0000.0001) // =======================================================
(PID.TID 0000.0001) // =======================================================
(PID.TID 0000.0001) // Begin OBCS MONITOR field statistics
(PID.TID 0000.0001) // =======================================================
(PID.TID 0000.0001) %MON obc_N_vVel_max               =   8.2412860237773E-08
(PID.TID 0000.0001) %MON obc_N_vVel_min               =   8.2412860237773E-08
(PID.TID 0000.0001) %MON obc_N_vVel_mean              =   8.2412860237773E-08
(PID.TID 0000.0001) %MON obc_N_vVel_sd                =  -7.8097229616880E-29
(PID.TID 0000.0001) %MON obc_N_vVel_Int               =   5.4392487756930E+00
(PID.TID 0000.0001) // =======================================================
(PID.TID 0000.0001) // End OBCS MONITOR field statistics
(PID.TID 0000.0001) // =======================================================
 cg2d: Sum(rhs),rhsMax =   3.00653587462196E+00  4.53039941271498E+02
(PID.TID 0000.0001)      cg2d_init_res =   5.38494480484423E-06
(PID.TID 0000.0001)      cg2d_iters(min,last) =      -1      78
(PID.TID 0000.0001)      cg2d_last_res =   8.61709295859747E-12
(PID.TID 0000.0001) // =======================================================
(PID.TID 0000.0001) // Begin MONITOR dynamic field statistics
(PID.TID 0000.0001) // =======================================================
(PID.TID 0000.0001) %MON time_tsnumber                =                  1406
(PID.TID 0000.0001) %MON time_secondsf                =   1.4060000000000E+05
(PID.TID 0000.0001) %MON dynstat_eta_max              =   5.7993738743693E+00
(PID.TID 0000.0001) %MON dynstat_eta_min              =  -1.4167045772358E+01
(PID.TID 0000.0001) %MON dynstat_eta_mean             =  -2.5223719186470E+00
(PID.TID 0000.0001) %MON dynstat_eta_sd               =   4.9405887622093E+00
(PID.TID 0000.0001) %MON dynstat_eta_del2             =   1.9059282637010E-01
(PID.TID 0000.0001) %MON dynstat_uvel_max             =   1.1574457037075E-02
(PID.TID 0000.0001) %MON dynstat_uvel_min             =  -5.2273184877931E-02
(PID.TID 0000.0001) %MON dynstat_uvel_mean            =   4.9436253929872E-09
(PID.TID 0000.0001) %MON dynstat_uvel_sd              =   1.5060480526534E-03
(PID.TID 0000.0001) %MON dynstat_uvel_del2            =   2.3327337471609E-06
(PID.TID 0000.0001) %MON dynstat_vvel_max             =   3.1821526945379E-02
(PID.TID 0000.0001) %MON dynstat_vvel_min             =  -1.5257364576462E-02
(PID.TID 0000.0001) %MON dynstat_vvel_mean            =   1.2461855346219E-07
(PID.TID 0000.0001) %MON dynstat_vvel_sd              =   6.6863653116644E-04
(PID.TID 0000.0001) %MON dynstat_vvel_del2            =   1.7560460015453E-06
(PID.TID 0000.0001) %MON dynstat_wvel_max             =   2.0399467869416E-03
(PID.TID 0000.0001) %MON dynstat_wvel_min             =  -2.6376763152081E-03
(PID.TID 0000.0001) %MON dynstat_wvel_mean            =   4.1238853291367E-10
(PID.TID 0000.0001) %MON dynstat_wvel_sd              =   3.4057070293760E-05
(PID.TID 0000.0001) %MON dynstat_wvel_del2            =   1.3216039797589E-07
(PID.TID 0000.0001) %MON dynstat_theta_max            =   1.2000000000000E+00
(PID.TID 0000.0001) %MON dynstat_theta_min            =  -1.0000000000000E+00
(PID.TID 0000.0001) %MON dynstat_theta_mean           =   5.6491330902898E-01
(PID.TID 0000.0001) %MON dynstat_theta_sd             =   8.4884189452948E-01
(PID.TID 0000.0001) %MON dynstat_theta_del2           =   4.8530849652924E-06
(PID.TID 0000.0001) %MON dynstat_salt_max             =   3.4700000000000E+01
(PID.TID 0000.0001) %MON dynstat_salt_min             =   3.4000000000000E+01
(PID.TID 0000.0001) %MON dynstat_salt_mean            =   3.4497879411288E+01
(PID.TID 0000.0001) %MON dynstat_salt_sd              =   2.7007583784682E-01
(PID.TID 0000.0001) %MON dynstat_salt_del2            =   1.9222358287953E-06
(PID.TID 0000.0001) %MON advcfl_uvel_max              =   5.2273184877931E-03
(PID.TID 0000.0001) %MON advcfl_vvel_max              =   3.1821526945379E-03
(PID.TID 0000.0001) %MON advcfl_wvel_max              =   1.3188381576041E-02
(PID.TID 0000.0001) %MON advcfl_W_hf_max              =   1.3188381576041E-02
(PID.TID 0000.0001) %MON pe_b_mean                    =  -6.8145506972778E-01
(PID.TID 0000.0001) %MON ke_max                       =   1.2669621930644E-03
(PID.TID 0000.0001) %MON ke_mean                      =   1.3363021446039E-06
(PID.TID 0000.0001) %MON ke_vol                       =   4.6183170537346E+12
(PID.TID 0000.0001) // =======================================================
(PID.TID 0000.0001) // End MONITOR dynamic field statistics
(PID.TID 0000.0001) // =======================================================
(PID.TID 0000.0001) // =======================================================
(PID.TID 0000.0001) // Begin OBCS MONITOR field statistics
(PID.TID 0000.0001) // =======================================================
(PID.TID 0000.0001) %MON obc_N_vVel_max               =   7.8965114992440E-08
(PID.TID 0000.0001) %MON obc_N_vVel_min               =   7.8965114992437E-08
(PID.TID 0000.0001) %MON obc_N_vVel_mean              =   7.8965114992437E-08
(PID.TID 0000.0001) %MON obc_N_vVel_sd                =   1.4403833450617E-14
(PID.TID 0000.0001) %MON obc_N_vVel_Int               =   5.2116975895009E+00
(PID.TID 0000.0001) // =======================================================
(PID.TID 0000.0001) // End OBCS MONITOR field statistics
(PID.TID 0000.0001) // =======================================================
 cg2d: Sum(rhs),rhsMax =   3.00652453582244E+00  4.53039920419755E+02
(PID.TID 0000.0001)      cg2d_init_res =   5.39417162921246E-06
(PID.TID 0000.0001)      cg2d_iters(min,last) =      -1      78
(PID.TID 0000.0001)      cg2d_last_res =   8.63657531669575E-12
(PID.TID 0000.0001) // =======================================================
(PID.TID 0000.0001) // Begin MONITOR dynamic field statistics
(PID.TID 0000.0001) // =======================================================
(PID.TID 0000.0001) %MON time_tsnumber                =                  1407
(PID.TID 0000.0001) %MON time_secondsf                =   1.4070000000000E+05
(PID.TID 0000.0001) %MON dynstat_eta_max              =   5.7993768899620E+00
(PID.TID 0000.0001) %MON dynstat_eta_min              =  -1.4167024515520E+01
(PID.TID 0000.0001) %MON dynstat_eta_mean             =  -2.5223622897204E+00
(PID.TID 0000.0001) %MON dynstat_eta_sd               =   4.9405859928765E+00
(PID.TID 0000.0001) %MON dynstat_eta_del2             =   1.9059285569153E-01
(PID.TID 0000.0001) %MON dynstat_uvel_max             =   1.1597372753728E-02
(PID.TID 0000.0001) %MON dynstat_uvel_min             =  -5.2377025684692E-02
(PID.TID 0000.0001) %MON dynstat_uvel_mean            =   4.9806902415666E-09
(PID.TID 0000.0001) %MON dynstat_uvel_sd              =   1.5094127135674E-03
(PID.TID 0000.0001) %MON dynstat_uvel_del2            =   2.3381627012259E-06
(PID.TID 0000.0001) %MON dynstat_vvel_max             =   3.1864308958962E-02
(PID.TID 0000.0001) %MON dynstat_vvel_min             =  -1.5298042023423E-02
(PID.TID 0000.0001) %MON dynstat_vvel_mean            =   1.2024769387718E-07
(PID.TID 0000.0001) %MON dynstat_vvel_sd              =   6.6993599312759E-04
(PID.TID 0000.0001) %MON dynstat_vvel_del2            =   1.7591786371132E-06
(PID.TID 0000.0001) %MON dynstat_wvel_max             =   2.0434575221138E-03
(PID.TID 0000.0001) %MON dynstat_wvel_min             =  -2.6419927084073E-03
(PID.TID 0000.0001) %MON dynstat_wvel_mean            =   4.1057231664426E-10
(PID.TID 0000.0001) %MON dynstat_wvel_sd              =   3.4123024269698E-05
(PID.TID 0000.0001) %MON dynstat_wvel_del2            =   1.3237076845120E-07
(PID.TID 0000.0001) %MON dynstat_theta_max            =   1.2000000000000E+00
(PID.TID 0000.0001) %MON dynstat_theta_min            =  -1.0000000000000E+00
(PID.TID 0000.0001) %MON dynstat_theta_mean           =   5.6491223149502E-01
(PID.TID 0000.0001) %MON dynstat_theta_sd             =   8.4884141010068E-01
(PID.TID 0000.0001) %MON dynstat_theta_del2           =   4.8615691832902E-06
(PID.TID 0000.0001) %MON dynstat_salt_max             =   3.4700000000000E+01
(PID.TID 0000.0001) %MON dynstat_salt_min             =   3.4000000000000E+01
(PID.TID 0000.0001) %MON dynstat_salt_mean            =   3.4497878980568E+01
(PID.TID 0000.0001) %MON dynstat_salt_sd              =   2.7007565545078E-01
(PID.TID 0000.0001) %MON dynstat_salt_del2            =   1.9256115338591E-06
(PID.TID 0000.0001) %MON advcfl_uvel_max              =   5.2377025684692E-03
(PID.TID 0000.0001) %MON advcfl_vvel_max              =   3.1864308958962E-03
(PID.TID 0000.0001) %MON advcfl_wvel_max              =   1.3209963542036E-02
(PID.TID 0000.0001) %MON advcfl_W_hf_max              =   1.3209963542036E-02
(PID.TID 0000.0001) %MON pe_b_mean                    =  -6.8145216790137E-01
(PID.TID 0000.0001) %MON ke_max                       =   1.2725803705572E-03
(PID.TID 0000.0001) %MON ke_mean                      =   1.3421494685726E-06
(PID.TID 0000.0001) %MON ke_vol                       =   4.6183171108032E+12
(PID.TID 0000.0001) // =======================================================
(PID.TID 0000.0001) // End MONITOR dynamic field statistics
(PID.TID 0000.0001) // =======================================================
(PID.TID 0000.0001) // =======================================================
(PID.TID 0000.0001) // Begin OBCS MONITOR field statistics
(PID.TID 0000.0001) // =======================================================
(PID.TID 0000.0001) %MON obc_N_vVel_max               =   7.5028690093244E-08
(PID.TID 0000.0001) %MON obc_N_vVel_min               =   7.5028690093243E-08
(PID.TID 0000.0001) %MON obc_N_vVel_mean              =   7.5028690093244E-08
(PID.TID 0000.0001) %MON obc_N_vVel_sd                =  -1.2621774483536E-28
(PID.TID 0000.0001) %MON obc_N_vVel_Int               =   4.9518935461541E+00
(PID.TID 0000.0001) // =======================================================
(PID.TID 0000.0001) // End OBCS MONITOR field statistics
(PID.TID 0000.0001) // =======================================================
 cg2d: Sum(rhs),rhsMax =   3.00651317180273E+00  4.53039899439230E+02
(PID.TID 0000.0001)      cg2d_init_res =   5.40340476359876E-06
(PID.TID 0000.0001)      cg2d_iters(min,last) =      -1      78
(PID.TID 0000.0001)      cg2d_last_res =   8.65618285156617E-12
(PID.TID 0000.0001) // =======================================================
(PID.TID 0000.0001) // Begin MONITOR dynamic field statistics
(PID.TID 0000.0001) // =======================================================
(PID.TID 0000.0001) %MON time_tsnumber                =                  1408
(PID.TID 0000.0001) %MON time_secondsf                =   1.4080000000000E+05
(PID.TID 0000.0001) %MON dynstat_eta_max              =   5.7993799181790E+00
(PID.TID 0000.0001) %MON dynstat_eta_min              =  -1.4167003200733E+01
(PID.TID 0000.0001) %MON dynstat_eta_mean             =  -2.5223526389189E+00
(PID.TID 0000.0001) %MON dynstat_eta_sd               =   4.9405832165970E+00
(PID.TID 0000.0001) %MON dynstat_eta_del2             =   1.9059288505658E-01
(PID.TID 0000.0001) %MON dynstat_uvel_max             =   1.1620296002890E-02
(PID.TID 0000.0001) %MON dynstat_uvel_min             =  -5.2481004583353E-02
(PID.TID 0000.0001) %MON dynstat_uvel_mean            =   5.0134567083529E-09
(PID.TID 0000.0001) %MON dynstat_uvel_sd              =   1.5127832555406E-03
(PID.TID 0000.0001) %MON dynstat_uvel_del2            =   2.3436027660324E-06
(PID.TID 0000.0001) %MON dynstat_vvel_max             =   3.1907096555253E-02
(PID.TID 0000.0001) %MON dynstat_vvel_min             =  -1.5338791632649E-02
(PID.TID 0000.0001) %MON dynstat_vvel_mean            =   1.1552842218805E-07
(PID.TID 0000.0001) %MON dynstat_vvel_sd              =   6.7123761259186E-04
(PID.TID 0000.0001) %MON dynstat_vvel_del2            =   1.7623146228791E-06
(PID.TID 0000.0001) %MON dynstat_wvel_max             =   2.0469701032177E-03
(PID.TID 0000.0001) %MON dynstat_wvel_min             =  -2.6462983759590E-03
(PID.TID 0000.0001) %MON dynstat_wvel_mean            =   4.0954589279312E-10
(PID.TID 0000.0001) %MON dynstat_wvel_sd              =   3.4188998720365E-05
(PID.TID 0000.0001) %MON dynstat_wvel_del2            =   1.3258147946224E-07
(PID.TID 0000.0001) %MON dynstat_theta_max            =   1.2000000000000E+00
(PID.TID 0000.0001) %MON dynstat_theta_min            =  -1.0000000000000E+00
(PID.TID 0000.0001) %MON dynstat_theta_mean           =   5.6491115207995E-01
(PID.TID 0000.0001) %MON dynstat_theta_sd             =   8.4884092488967E-01
(PID.TID 0000.0001) %MON dynstat_theta_del2           =   4.8700637654905E-06
(PID.TID 0000.0001) %MON dynstat_salt_max             =   3.4700000000000E+01
(PID.TID 0000.0001) %MON dynstat_salt_min             =   3.4000000000000E+01
(PID.TID 0000.0001) %MON dynstat_salt_mean            =   3.4497878549094E+01
(PID.TID 0000.0001) %MON dynstat_salt_sd              =   2.7007547276969E-01
(PID.TID 0000.0001) %MON dynstat_salt_del2            =   1.9289913491091E-06
(PID.TID 0000.0001) %MON advcfl_uvel_max              =   5.2481004583353E-03
(PID.TID 0000.0001) %MON advcfl_vvel_max              =   3.1907096555253E-03
(PID.TID 0000.0001) %MON advcfl_wvel_max              =   1.3231491879795E-02
(PID.TID 0000.0001) %MON advcfl_W_hf_max              =   1.3231491879795E-02
(PID.TID 0000.0001) %MON pe_b_mean                    =  -6.8144925985065E-01
(PID.TID 0000.0001) %MON ke_max                       =   1.2782190894246E-03
(PID.TID 0000.0001) %MON ke_mean                      =   1.3480197668640E-06
(PID.TID 0000.0001) %MON ke_vol                       =   4.6183171679991E+12
(PID.TID 0000.0001) // =======================================================
(PID.TID 0000.0001) // End MONITOR dynamic field statistics
(PID.TID 0000.0001) // =======================================================
(PID.TID 0000.0001) // =======================================================
(PID.TID 0000.0001) // Begin OBCS MONITOR field statistics
(PID.TID 0000.0001) // =======================================================
(PID.TID 0000.0001) %MON obc_N_vVel_max               =   7.0694386199007E-08
(PID.TID 0000.0001) %MON obc_N_vVel_min               =   7.0694386199007E-08
(PID.TID 0000.0001) %MON obc_N_vVel_mean              =   7.0694386199007E-08
(PID.TID 0000.0001) %MON obc_N_vVel_sd                =  -1.1438483125705E-28
(PID.TID 0000.0001) %MON obc_N_vVel_Int               =   4.6658294891345E+00
(PID.TID 0000.0001) // =======================================================
(PID.TID 0000.0001) // End OBCS MONITOR field statistics
(PID.TID 0000.0001) // =======================================================
 cg2d: Sum(rhs),rhsMax =   3.00650178204423E+00  4.53039878343196E+02
(PID.TID 0000.0001)      cg2d_init_res =   5.41263148223782E-06
(PID.TID 0000.0001)      cg2d_iters(min,last) =      -1      78
(PID.TID 0000.0001)      cg2d_last_res =   8.67588732742081E-12
(PID.TID 0000.0001) // =======================================================
(PID.TID 0000.0001) // Begin MONITOR dynamic field statistics
(PID.TID 0000.0001) // =======================================================
(PID.TID 0000.0001) %MON time_tsnumber                =                  1409
(PID.TID 0000.0001) %MON time_secondsf                =   1.4090000000000E+05
(PID.TID 0000.0001) %MON dynstat_eta_max              =   5.7993829594450E+00
(PID.TID 0000.0001) %MON dynstat_eta_min              =  -1.4166981827408E+01
(PID.TID 0000.0001) %MON dynstat_eta_mean             =  -2.5223429658813E+00
(PID.TID 0000.0001) %MON dynstat_eta_sd               =   4.9405804333516E+00
(PID.TID 0000.0001) %MON dynstat_eta_del2             =   1.9059291446552E-01
(PID.TID 0000.0001) %MON dynstat_uvel_max             =   1.1643226497108E-02
(PID.TID 0000.0001) %MON dynstat_uvel_min             =  -5.2585121512191E-02
(PID.TID 0000.0001) %MON dynstat_uvel_mean            =   5.0416433612082E-09
(PID.TID 0000.0001) %MON dynstat_uvel_sd              =   1.5161596807425E-03
(PID.TID 0000.0001) %MON dynstat_uvel_del2            =   2.3490539560028E-06
(PID.TID 0000.0001) %MON dynstat_vvel_max             =   3.1949889710933E-02
(PID.TID 0000.0001) %MON dynstat_vvel_min             =  -1.5379613367482E-02
(PID.TID 0000.0001) %MON dynstat_vvel_mean            =   1.1056741081121E-07
(PID.TID 0000.0001) %MON dynstat_vvel_sd              =   6.7254135017066E-04
(PID.TID 0000.0001) %MON dynstat_vvel_del2            =   1.7654538245301E-06
(PID.TID 0000.0001) %MON dynstat_wvel_max             =   2.0504845173292E-03
(PID.TID 0000.0001) %MON dynstat_wvel_min             =  -2.6505931902237E-03
(PID.TID 0000.0001) %MON dynstat_wvel_mean            =   4.0933432830925E-10
(PID.TID 0000.0001) %MON dynstat_wvel_sd              =   3.4254881947895E-05
(PID.TID 0000.0001) %MON dynstat_wvel_del2            =   1.3279187265297E-07
(PID.TID 0000.0001) %MON dynstat_theta_max            =   1.2000000000000E+00
(PID.TID 0000.0001) %MON dynstat_theta_min            =  -1.0000000000000E+00
(PID.TID 0000.0001) %MON dynstat_theta_mean           =   5.6491007078198E-01
(PID.TID 0000.0001) %MON dynstat_theta_sd             =   8.4884043889388E-01
(PID.TID 0000.0001) %MON dynstat_theta_del2           =   4.8785671775713E-06
(PID.TID 0000.0001) %MON dynstat_salt_max             =   3.4700000000000E+01
(PID.TID 0000.0001) %MON dynstat_salt_min             =   3.4000000000000E+01
(PID.TID 0000.0001) %MON dynstat_salt_mean            =   3.4497878116865E+01
(PID.TID 0000.0001) %MON dynstat_salt_sd              =   2.7007528980344E-01
(PID.TID 0000.0001) %MON dynstat_salt_del2            =   1.9323752435510E-06
(PID.TID 0000.0001) %MON advcfl_uvel_max              =   5.2585121512191E-03
(PID.TID 0000.0001) %MON advcfl_vvel_max              =   3.1949889710933E-03
(PID.TID 0000.0001) %MON advcfl_wvel_max              =   1.3252965951119E-02
(PID.TID 0000.0001) %MON advcfl_W_hf_max              =   1.3252965951119E-02
(PID.TID 0000.0001) %MON pe_b_mean                    =  -6.8144634552252E-01
(PID.TID 0000.0001) %MON ke_max                       =   1.2838784022696E-03
(PID.TID 0000.0001) %MON ke_mean                      =   1.3539130830065E-06
(PID.TID 0000.0001) %MON ke_vol                       =   4.6183172253248E+12
(PID.TID 0000.0001) // =======================================================
(PID.TID 0000.0001) // End MONITOR dynamic field statistics
(PID.TID 0000.0001) // =======================================================
(PID.TID 0000.0001) // =======================================================
(PID.TID 0000.0001) // Begin OBCS MONITOR field statistics
(PID.TID 0000.0001) // =======================================================
(PID.TID 0000.0001) %MON obc_N_vVel_max               =   6.6060048107075E-08
(PID.TID 0000.0001) %MON obc_N_vVel_min               =   6.6060048107075E-08
(PID.TID 0000.0001) %MON obc_N_vVel_mean              =   6.6060048107075E-08
(PID.TID 0000.0001) %MON obc_N_vVel_sd                =  -5.7586846081134E-29
(PID.TID 0000.0001) %MON obc_N_vVel_Int               =   4.3599631750670E+00
(PID.TID 0000.0001) // =======================================================
(PID.TID 0000.0001) // End OBCS MONITOR field statistics
(PID.TID 0000.0001) // =======================================================
 cg2d: Sum(rhs),rhsMax =   3.00649036615126E+00  4.53039857146934E+02
(PID.TID 0000.0001)      cg2d_init_res =   5.42183871109529E-06
(PID.TID 0000.0001)      cg2d_iters(min,last) =      -1      78
(PID.TID 0000.0001)      cg2d_last_res =   8.69567923911580E-12
(PID.TID 0000.0001) // =======================================================
(PID.TID 0000.0001) // Begin MONITOR dynamic field statistics
(PID.TID 0000.0001) // =======================================================
(PID.TID 0000.0001) %MON time_tsnumber                =                  1410
(PID.TID 0000.0001) %MON time_secondsf                =   1.4100000000000E+05
(PID.TID 0000.0001) %MON dynstat_eta_max              =   5.7993860139908E+00
(PID.TID 0000.0001) %MON dynstat_eta_min              =  -1.4166960395212E+01
(PID.TID 0000.0001) %MON dynstat_eta_mean             =  -2.5223332703607E+00
(PID.TID 0000.0001) %MON dynstat_eta_sd               =   4.9405776431623E+00
(PID.TID 0000.0001) %MON dynstat_eta_del2             =   1.9059294391875E-01
(PID.TID 0000.0001) %MON dynstat_uvel_max             =   1.1666163946541E-02
(PID.TID 0000.0001) %MON dynstat_uvel_min             =  -5.2689376397915E-02
(PID.TID 0000.0001) %MON dynstat_uvel_mean            =   5.0650564947650E-09
(PID.TID 0000.0001) %MON dynstat_uvel_sd              =   1.5195419912773E-03
(PID.TID 0000.0001) %MON dynstat_uvel_del2            =   2.3545162846888E-06
(PID.TID 0000.0001) %MON dynstat_vvel_max             =   3.1992688402523E-02
(PID.TID 0000.0001) %MON dynstat_vvel_min             =  -1.5420507185446E-02
(PID.TID 0000.0001) %MON dynstat_vvel_mean            =   1.0547509025960E-07
(PID.TID 0000.0001) %MON dynstat_vvel_sd              =   6.7384716872946E-04
(PID.TID 0000.0001) %MON dynstat_vvel_del2            =   1.7685961178237E-06
(PID.TID 0000.0001) %MON dynstat_wvel_max             =   2.0540007513941E-03
(PID.TID 0000.0001) %MON dynstat_wvel_min             =  -2.6548770233776E-03
(PID.TID 0000.0001) %MON dynstat_wvel_mean            =   4.0994597016363E-10
(PID.TID 0000.0001) %MON dynstat_wvel_sd              =   3.4320569588896E-05
(PID.TID 0000.0001) %MON dynstat_wvel_del2            =   1.3300130991330E-07
(PID.TID 0000.0001) %MON dynstat_theta_max            =   1.2000000000000E+00
(PID.TID 0000.0001) %MON dynstat_theta_min            =  -1.0000000000000E+00
(PID.TID 0000.0001) %MON dynstat_theta_mean           =   5.6490898759931E-01
(PID.TID 0000.0001) %MON dynstat_theta_sd             =   8.4883995210953E-01
(PID.TID 0000.0001) %MON dynstat_theta_del2           =   4.8870780826763E-06
(PID.TID 0000.0001) %MON dynstat_salt_max             =   3.4700000000000E+01
(PID.TID 0000.0001) %MON dynstat_salt_min             =   3.4000000000000E+01
(PID.TID 0000.0001) %MON dynstat_salt_mean            =   3.4497877683881E+01
(PID.TID 0000.0001) %MON dynstat_salt_sd              =   2.7007510654782E-01
(PID.TID 0000.0001) %MON dynstat_salt_del2            =   1.9357613809454E-06
(PID.TID 0000.0001) %MON advcfl_uvel_max              =   5.2689376397915E-03
(PID.TID 0000.0001) %MON advcfl_vvel_max              =   3.1992688402523E-03
(PID.TID 0000.0001) %MON advcfl_wvel_max              =   1.3274385116888E-02
(PID.TID 0000.0001) %MON advcfl_W_hf_max              =   1.3274385116888E-02
(PID.TID 0000.0001) %MON pe_b_mean                    =  -6.8144342488762E-01
(PID.TID 0000.0001) %MON ke_max                       =   1.2895583615773E-03
(PID.TID 0000.0001) %MON ke_mean                      =   1.3598294618875E-06
(PID.TID 0000.0001) %MON ke_vol                       =   4.6183172827827E+12
(PID.TID 0000.0001) // =======================================================
(PID.TID 0000.0001) // End MONITOR dynamic field statistics
(PID.TID 0000.0001) // =======================================================
(PID.TID 0000.0001) // =======================================================
(PID.TID 0000.0001) // Begin OBCS MONITOR field statistics
(PID.TID 0000.0001) // =======================================================
(PID.TID 0000.0001) %MON obc_N_vVel_max               =   6.1228532500528E-08
(PID.TID 0000.0001) %MON obc_N_vVel_min               =   6.1228532500526E-08
(PID.TID 0000.0001) %MON obc_N_vVel_mean              =   6.1228532500526E-08
(PID.TID 0000.0001) %MON obc_N_vVel_sd                =   1.4540107379219E-14
(PID.TID 0000.0001) %MON obc_N_vVel_Int               =   4.0410831450347E+00
(PID.TID 0000.0001) // =======================================================
(PID.TID 0000.0001) // End OBCS MONITOR field statistics
(PID.TID 0000.0001) // =======================================================
 cg2d: Sum(rhs),rhsMax =   3.00647892385793E+00  4.53039835867459E+02
(PID.TID 0000.0001)      cg2d_init_res =   5.43101509316090E-06
(PID.TID 0000.0001)      cg2d_iters(min,last) =      -1      78
(PID.TID 0000.0001)      cg2d_last_res =   8.71554353554814E-12
(PID.TID 0000.0001) // =======================================================
(PID.TID 0000.0001) // Begin MONITOR dynamic field statistics
(PID.TID 0000.0001) // =======================================================
(PID.TID 0000.0001) %MON time_tsnumber                =                  1411
(PID.TID 0000.0001) %MON time_secondsf                =   1.4110000000000E+05
(PID.TID 0000.0001) %MON dynstat_eta_max              =   5.7993890818611E+00
(PID.TID 0000.0001) %MON dynstat_eta_min              =  -1.4166938904008E+01
(PID.TID 0000.0001) %MON dynstat_eta_mean             =  -2.5223235522288E+00
(PID.TID 0000.0001) %MON dynstat_eta_sd               =   4.9405748460915E+00
(PID.TID 0000.0001) %MON dynstat_eta_del2             =   1.9059297341674E-01
(PID.TID 0000.0001) %MON dynstat_uvel_max             =   1.1689108059404E-02
(PID.TID 0000.0001) %MON dynstat_uvel_min             =  -5.2793769156844E-02
(PID.TID 0000.0001) %MON dynstat_uvel_mean            =   5.0835773167904E-09
(PID.TID 0000.0001) %MON dynstat_uvel_sd              =   1.5229301895140E-03
(PID.TID 0000.0001) %MON dynstat_uvel_del2            =   2.3599897765708E-06
(PID.TID 0000.0001) %MON dynstat_vvel_max             =   3.2035492606075E-02
(PID.TID 0000.0001) %MON dynstat_vvel_min             =  -1.5461473039025E-02
(PID.TID 0000.0001) %MON dynstat_vvel_mean            =   1.0036361434044E-07
(PID.TID 0000.0001) %MON dynstat_vvel_sd              =   6.7515503872875E-04
(PID.TID 0000.0001) %MON dynstat_vvel_del2            =   1.7717414120763E-06
(PID.TID 0000.0001) %MON dynstat_wvel_max             =   2.0575187922463E-03
(PID.TID 0000.0001) %MON dynstat_wvel_min             =  -2.6591497474279E-03
(PID.TID 0000.0001) %MON dynstat_wvel_mean            =   4.1137841497932E-10
(PID.TID 0000.0001) %MON dynstat_wvel_sd              =   3.4385971392028E-05
(PID.TID 0000.0001) %MON dynstat_wvel_del2            =   1.3320922453836E-07
(PID.TID 0000.0001) %MON dynstat_theta_max            =   1.2000000000000E+00
(PID.TID 0000.0001) %MON dynstat_theta_min            =  -1.0000000000000E+00
(PID.TID 0000.0001) %MON dynstat_theta_mean           =   5.6490790253027E-01
(PID.TID 0000.0001) %MON dynstat_theta_sd             =   8.4883946454292E-01
(PID.TID 0000.0001) %MON dynstat_theta_del2           =   4.8955999138168E-06
(PID.TID 0000.0001) %MON dynstat_salt_max             =   3.4700000000000E+01
(PID.TID 0000.0001) %MON dynstat_salt_min             =   3.4000000000000E+01
(PID.TID 0000.0001) %MON dynstat_salt_mean            =   3.4497877250141E+01
(PID.TID 0000.0001) %MON dynstat_salt_sd              =   2.7007492300725E-01
(PID.TID 0000.0001) %MON dynstat_salt_del2            =   1.9391517613034E-06
(PID.TID 0000.0001) %MON advcfl_uvel_max              =   5.2793769156844E-03
(PID.TID 0000.0001) %MON advcfl_vvel_max              =   3.2035492606075E-03
(PID.TID 0000.0001) %MON advcfl_wvel_max              =   1.3295748737140E-02
(PID.TID 0000.0001) %MON advcfl_W_hf_max              =   1.3295748737140E-02
(PID.TID 0000.0001) %MON pe_b_mean                    =  -6.8144049794103E-01
(PID.TID 0000.0001) %MON ke_max                       =   1.2952590197647E-03
(PID.TID 0000.0001) %MON ke_mean                      =   1.3657689538643E-06
(PID.TID 0000.0001) %MON ke_vol                       =   4.6183173403741E+12
(PID.TID 0000.0001) // =======================================================
(PID.TID 0000.0001) // End MONITOR dynamic field statistics
(PID.TID 0000.0001) // =======================================================
(PID.TID 0000.0001) // =======================================================
(PID.TID 0000.0001) // Begin OBCS MONITOR field statistics
(PID.TID 0000.0001) // =======================================================
(PID.TID 0000.0001) %MON obc_N_vVel_max               =   5.6305611060541E-08
(PID.TID 0000.0001) %MON obc_N_vVel_min               =   5.6305611060539E-08
(PID.TID 0000.0001) %MON obc_N_vVel_mean              =   5.6305611060539E-08
(PID.TID 0000.0001) %MON obc_N_vVel_sd                =   1.4029283511735E-14
(PID.TID 0000.0001) %MON obc_N_vVel_Int               =   3.7161703299956E+00
(PID.TID 0000.0001) // =======================================================
(PID.TID 0000.0001) // End OBCS MONITOR field statistics
(PID.TID 0000.0001) // =======================================================
 cg2d: Sum(rhs),rhsMax =   3.00646745503514E+00  4.53039814522492E+02
(PID.TID 0000.0001)      cg2d_init_res =   5.44015237216024E-06
(PID.TID 0000.0001)      cg2d_iters(min,last) =      -1      78
(PID.TID 0000.0001)      cg2d_last_res =   8.73546496025347E-12
(PID.TID 0000.0001) // =======================================================
(PID.TID 0000.0001) // Begin MONITOR dynamic field statistics
(PID.TID 0000.0001) // =======================================================
(PID.TID 0000.0001) %MON time_tsnumber                =                  1412
(PID.TID 0000.0001) %MON time_secondsf                =   1.4120000000000E+05
(PID.TID 0000.0001) %MON dynstat_eta_max              =   5.7993921629022E+00
(PID.TID 0000.0001) %MON dynstat_eta_min              =  -1.4166917353907E+01
(PID.TID 0000.0001) %MON dynstat_eta_mean             =  -2.5223138114760E+00
(PID.TID 0000.0001) %MON dynstat_eta_sd               =   4.9405720422420E+00
(PID.TID 0000.0001) %MON dynstat_eta_del2             =   1.9059300296012E-01
(PID.TID 0000.0001) %MON dynstat_uvel_max             =   1.1712058541907E-02
(PID.TID 0000.0001) %MON dynstat_uvel_min             =  -5.2898299691992E-02
(PID.TID 0000.0001) %MON dynstat_uvel_mean            =   5.0972182752797E-09
(PID.TID 0000.0001) %MON dynstat_uvel_sd              =   1.5263242775486E-03
(PID.TID 0000.0001) %MON dynstat_uvel_del2            =   2.3654744459071E-06
(PID.TID 0000.0001) %MON dynstat_vvel_max             =   3.2078302296934E-02
(PID.TID 0000.0001) %MON dynstat_vvel_min             =  -1.5502510875908E-02
(PID.TID 0000.0001) %MON dynstat_vvel_mean            =   9.5344067543820E-08
(PID.TID 0000.0001) %MON dynstat_vvel_sd              =   6.7646493252259E-04
(PID.TID 0000.0001) %MON dynstat_vvel_del2            =   1.7748896329209E-06
(PID.TID 0000.0001) %MON dynstat_wvel_max             =   2.0610386265970E-03
(PID.TID 0000.0001) %MON dynstat_wvel_min             =  -2.6634112342004E-03
(PID.TID 0000.0001) %MON dynstat_wvel_mean            =   4.1360230404855E-10
(PID.TID 0000.0001) %MON dynstat_wvel_sd              =   3.4451016000438E-05
(PID.TID 0000.0001) %MON dynstat_wvel_del2            =   1.3341515484498E-07
(PID.TID 0000.0001) %MON dynstat_theta_max            =   1.2000000000000E+00
(PID.TID 0000.0001) %MON dynstat_theta_min            =  -1.0000000000000E+00
(PID.TID 0000.0001) %MON dynstat_theta_mean           =   5.6490681557320E-01
(PID.TID 0000.0001) %MON dynstat_theta_sd             =   8.4883897619396E-01
(PID.TID 0000.0001) %MON dynstat_theta_del2           =   4.9041327535708E-06
(PID.TID 0000.0001) %MON dynstat_salt_max             =   3.4700000000000E+01
(PID.TID 0000.0001) %MON dynstat_salt_min             =   3.4000000000000E+01
(PID.TID 0000.0001) %MON dynstat_salt_mean            =   3.4497876815643E+01
(PID.TID 0000.0001) %MON dynstat_salt_sd              =   2.7007473918183E-01
(PID.TID 0000.0001) %MON dynstat_salt_del2            =   1.9425463984312E-06
(PID.TID 0000.0001) %MON advcfl_uvel_max              =   5.2898299691992E-03
(PID.TID 0000.0001) %MON advcfl_vvel_max              =   3.2078302296934E-03
(PID.TID 0000.0001) %MON advcfl_wvel_max              =   1.3317056171002E-02
(PID.TID 0000.0001) %MON advcfl_W_hf_max              =   1.3317056171002E-02
(PID.TID 0000.0001) %MON pe_b_mean                    =  -6.8143756470142E-01
(PID.TID 0000.0001) %MON ke_max                       =   1.3009804290540E-03
(PID.TID 0000.0001) %MON ke_mean                      =   1.3717316101559E-06
(PID.TID 0000.0001) %MON ke_vol                       =   4.6183173980998E+12
(PID.TID 0000.0001) // =======================================================
(PID.TID 0000.0001) // End MONITOR dynamic field statistics
(PID.TID 0000.0001) // =======================================================
(PID.TID 0000.0001) // =======================================================
(PID.TID 0000.0001) // Begin OBCS MONITOR field statistics
(PID.TID 0000.0001) // =======================================================
(PID.TID 0000.0001) %MON obc_N_vVel_max               =   5.1397788808309E-08
(PID.TID 0000.0001) %MON obc_N_vVel_min               =   5.1397788808308E-08
(PID.TID 0000.0001) %MON obc_N_vVel_mean              =   5.1397788808308E-08
(PID.TID 0000.0001) %MON obc_N_vVel_sd                =   7.0216669371534E-15
(PID.TID 0000.0001) %MON obc_N_vVel_Int               =   3.3922540613483E+00
(PID.TID 0000.0001) // =======================================================
(PID.TID 0000.0001) // End OBCS MONITOR field statistics
(PID.TID 0000.0001) // =======================================================
 cg2d: Sum(rhs),rhsMax =   3.00645595967659E+00  4.53039793132171E+02
(PID.TID 0000.0001)      cg2d_init_res =   5.44924173033611E-06
(PID.TID 0000.0001)      cg2d_iters(min,last) =      -1      78
(PID.TID 0000.0001)      cg2d_last_res =   8.75542048271392E-12
(PID.TID 0000.0001) // =======================================================
(PID.TID 0000.0001) // Begin MONITOR dynamic field statistics
(PID.TID 0000.0001) // =======================================================
(PID.TID 0000.0001) %MON time_tsnumber                =                  1413
(PID.TID 0000.0001) %MON time_secondsf                =   1.4130000000000E+05
(PID.TID 0000.0001) %MON dynstat_eta_max              =   5.7993952567700E+00
(PID.TID 0000.0001) %MON dynstat_eta_min              =  -1.4166895745249E+01
(PID.TID 0000.0001) %MON dynstat_eta_mean             =  -2.5223040482090E+00
(PID.TID 0000.0001) %MON dynstat_eta_sd               =   4.9405692317533E+00
(PID.TID 0000.0001) %MON dynstat_eta_del2             =   1.9059303254957E-01
(PID.TID 0000.0001) %MON dynstat_uvel_max             =   1.1735015098569E-02
(PID.TID 0000.0001) %MON dynstat_uvel_min             =  -5.3002967892193E-02
(PID.TID 0000.0001) %MON dynstat_uvel_mean            =   5.1060964508612E-09
(PID.TID 0000.0001) %MON dynstat_uvel_sd              =   1.5297242573879E-03
(PID.TID 0000.0001) %MON dynstat_uvel_del2            =   2.3709703069691E-06
(PID.TID 0000.0001) %MON dynstat_vvel_max             =   3.2121117449438E-02
(PID.TID 0000.0001) %MON dynstat_vvel_min             =  -1.5543620639074E-02
(PID.TID 0000.0001) %MON dynstat_vvel_mean            =   9.0524584588349E-08
(PID.TID 0000.0001) %MON dynstat_vvel_sd              =   6.7777682873218E-04
(PID.TID 0000.0001) %MON dynstat_vvel_del2            =   1.7780407398221E-06
(PID.TID 0000.0001) %MON dynstat_wvel_max             =   2.0645602410563E-03
(PID.TID 0000.0001) %MON dynstat_wvel_min             =  -2.6676613553592E-03
(PID.TID 0000.0001) %MON dynstat_wvel_mean            =   4.1657647979475E-10
(PID.TID 0000.0001) %MON dynstat_wvel_sd              =   3.4515655256718E-05
(PID.TID 0000.0001) %MON dynstat_wvel_del2            =   1.3361877915058E-07
(PID.TID 0000.0001) %MON dynstat_theta_max            =   1.2000000000000E+00
(PID.TID 0000.0001) %MON dynstat_theta_min            =  -1.0000000000000E+00
(PID.TID 0000.0001) %MON dynstat_theta_mean           =   5.6490572672644E-01
(PID.TID 0000.0001) %MON dynstat_theta_sd             =   8.4883848706256E-01
(PID.TID 0000.0001) %MON dynstat_theta_del2           =   4.9126768537439E-06
(PID.TID 0000.0001) %MON dynstat_salt_max             =   3.4700000000000E+01
(PID.TID 0000.0001) %MON dynstat_salt_min             =   3.4000000000000E+01
(PID.TID 0000.0001) %MON dynstat_salt_mean            =   3.4497876380388E+01
(PID.TID 0000.0001) %MON dynstat_salt_sd              =   2.7007455507158E-01
(PID.TID 0000.0001) %MON dynstat_salt_del2            =   1.9459453833726E-06
(PID.TID 0000.0001) %MON advcfl_uvel_max              =   5.3002967892193E-03
(PID.TID 0000.0001) %MON advcfl_vvel_max              =   3.2121117449438E-03
(PID.TID 0000.0001) %MON advcfl_wvel_max              =   1.3338306776796E-02
(PID.TID 0000.0001) %MON advcfl_W_hf_max              =   1.3338306776796E-02
(PID.TID 0000.0001) %MON pe_b_mean                    =  -6.8143462521038E-01
(PID.TID 0000.0001) %MON ke_max                       =   1.3067226414861E-03
(PID.TID 0000.0001) %MON ke_mean                      =   1.3777174860896E-06
(PID.TID 0000.0001) %MON ke_vol                       =   4.6183174559598E+12
(PID.TID 0000.0001) // =======================================================
(PID.TID 0000.0001) // End MONITOR dynamic field statistics
(PID.TID 0000.0001) // =======================================================
(PID.TID 0000.0001) // =======================================================
(PID.TID 0000.0001) // Begin OBCS MONITOR field statistics
(PID.TID 0000.0001) // =======================================================
(PID.TID 0000.0001) %MON obc_N_vVel_max               =   4.6610153539464E-08
(PID.TID 0000.0001) %MON obc_N_vVel_min               =   4.6610153539462E-08
(PID.TID 0000.0001) %MON obc_N_vVel_mean              =   4.6610153539462E-08
(PID.TID 0000.0001) %MON obc_N_vVel_sd                =   1.4848791971378E-14
(PID.TID 0000.0001) %MON obc_N_vVel_Int               =   3.0762701336045E+00
(PID.TID 0000.0001) // =======================================================
(PID.TID 0000.0001) // End OBCS MONITOR field statistics
(PID.TID 0000.0001) // =======================================================
 cg2d: Sum(rhs),rhsMax =   3.00644443791050E+00  4.53039771716613E+02
(PID.TID 0000.0001)      cg2d_init_res =   5.45827721053301E-06
(PID.TID 0000.0001)      cg2d_iters(min,last) =      -1      78
(PID.TID 0000.0001)      cg2d_last_res =   8.77538265094632E-12
(PID.TID 0000.0001) // =======================================================
(PID.TID 0000.0001) // Begin MONITOR dynamic field statistics
(PID.TID 0000.0001) // =======================================================
(PID.TID 0000.0001) %MON time_tsnumber                =                  1414
(PID.TID 0000.0001) %MON time_secondsf                =   1.4140000000000E+05
(PID.TID 0000.0001) %MON dynstat_eta_max              =   5.7993983629515E+00
(PID.TID 0000.0001) %MON dynstat_eta_min              =  -1.4166874078573E+01
(PID.TID 0000.0001) %MON dynstat_eta_mean             =  -2.5222942626475E+00
(PID.TID 0000.0001) %MON dynstat_eta_sd               =   4.9405664147948E+00
(PID.TID 0000.0001) %MON dynstat_eta_del2             =   1.9059306218578E-01
(PID.TID 0000.0001) %MON dynstat_uvel_max             =   1.1757977431895E-02
(PID.TID 0000.0001) %MON dynstat_uvel_min             =  -5.3107773634625E-02
(PID.TID 0000.0001) %MON dynstat_uvel_mean            =   5.1104064036738E-09
(PID.TID 0000.0001) %MON dynstat_uvel_sd              =   1.5331301309771E-03
(PID.TID 0000.0001) %MON dynstat_uvel_del2            =   2.3764773740290E-06
(PID.TID 0000.0001) %MON dynstat_vvel_max             =   3.2163938036624E-02
(PID.TID 0000.0001) %MON dynstat_vvel_min             =  -1.5584802267135E-02
(PID.TID 0000.0001) %MON dynstat_vvel_mean            =   8.6008156669108E-08
(PID.TID 0000.0001) %MON dynstat_vvel_sd              =   6.7909071287658E-04
(PID.TID 0000.0001) %MON dynstat_vvel_del2            =   1.7811947283620E-06
(PID.TID 0000.0001) %MON dynstat_wvel_max             =   2.0680836221321E-03
(PID.TID 0000.0001) %MON dynstat_wvel_min             =  -2.6718999823751E-03
(PID.TID 0000.0001) %MON dynstat_wvel_mean            =   4.2024680211522E-10
(PID.TID 0000.0001) %MON dynstat_wvel_sd              =   3.4579866516511E-05
(PID.TID 0000.0001) %MON dynstat_wvel_del2            =   1.3381993539229E-07
(PID.TID 0000.0001) %MON dynstat_theta_max            =   1.2000000000000E+00
(PID.TID 0000.0001) %MON dynstat_theta_min            =  -1.0000000000000E+00
(PID.TID 0000.0001) %MON dynstat_theta_mean           =   5.6490463598826E-01
(PID.TID 0000.0001) %MON dynstat_theta_sd             =   8.4883799714916E-01
(PID.TID 0000.0001) %MON dynstat_theta_del2           =   4.9212319902693E-06
(PID.TID 0000.0001) %MON dynstat_salt_max             =   3.4700000000000E+01
(PID.TID 0000.0001) %MON dynstat_salt_min             =   3.4000000000000E+01
(PID.TID 0000.0001) %MON dynstat_salt_mean            =   3.4497875944374E+01
(PID.TID 0000.0001) %MON dynstat_salt_sd              =   2.7007437067680E-01
(PID.TID 0000.0001) %MON dynstat_salt_del2            =   1.9493486219586E-06
(PID.TID 0000.0001) %MON advcfl_uvel_max              =   5.3107773634625E-03
(PID.TID 0000.0001) %MON advcfl_vvel_max              =   3.2163938036624E-03
(PID.TID 0000.0001) %MON advcfl_wvel_max              =   1.3359499911876E-02
(PID.TID 0000.0001) %MON advcfl_W_hf_max              =   1.3359499911876E-02
(PID.TID 0000.0001) %MON pe_b_mean                    =  -6.8143167953109E-01
(PID.TID 0000.0001) %MON ke_max                       =   1.3124857090432E-03
(PID.TID 0000.0001) %MON ke_mean                      =   1.3837266416109E-06
(PID.TID 0000.0001) %MON ke_vol                       =   4.6183175139536E+12
(PID.TID 0000.0001) // =======================================================
(PID.TID 0000.0001) // End MONITOR dynamic field statistics
(PID.TID 0000.0001) // =======================================================
(PID.TID 0000.0001) // =======================================================
(PID.TID 0000.0001) // Begin OBCS MONITOR field statistics
(PID.TID 0000.0001) // =======================================================
(PID.TID 0000.0001) %MON obc_N_vVel_max               =   4.2044242455596E-08
(PID.TID 0000.0001) %MON obc_N_vVel_min               =   4.2044242455596E-08
(PID.TID 0000.0001) %MON obc_N_vVel_mean              =   4.2044242455596E-08
(PID.TID 0000.0001) %MON obc_N_vVel_sd                =  -6.7842037849007E-29
(PID.TID 0000.0001) %MON obc_N_vVel_Int               =   2.7749200020694E+00
(PID.TID 0000.0001) // =======================================================
(PID.TID 0000.0001) // End OBCS MONITOR field statistics
(PID.TID 0000.0001) // =======================================================
 cg2d: Sum(rhs),rhsMax =   3.00643288999085E+00  4.53039750296176E+02
(PID.TID 0000.0001)      cg2d_init_res =   5.46725701809866E-06
(PID.TID 0000.0001)      cg2d_iters(min,last) =      -1      78
(PID.TID 0000.0001)      cg2d_last_res =   8.79535265509596E-12
(PID.TID 0000.0001) // =======================================================
(PID.TID 0000.0001) // Begin MONITOR dynamic field statistics
(PID.TID 0000.0001) // =======================================================
(PID.TID 0000.0001) %MON time_tsnumber                =                  1415
(PID.TID 0000.0001) %MON time_secondsf                =   1.4150000000000E+05
(PID.TID 0000.0001) %MON dynstat_eta_max              =   5.7994014807520E+00
(PID.TID 0000.0001) %MON dynstat_eta_min              =  -1.4166852354619E+01
(PID.TID 0000.0001) %MON dynstat_eta_mean             =  -2.5222844551179E+00
(PID.TID 0000.0001) %MON dynstat_eta_sd               =   4.9405635915667E+00
(PID.TID 0000.0001) %MON dynstat_eta_del2             =   1.9059309186947E-01
(PID.TID 0000.0001) %MON dynstat_uvel_max             =   1.1780945242262E-02
(PID.TID 0000.0001) %MON dynstat_uvel_min             =  -5.3212716786054E-02
(PID.TID 0000.0001) %MON dynstat_uvel_mean            =   5.1104137720780E-09
(PID.TID 0000.0001) %MON dynstat_uvel_sd              =   1.5365419001749E-03
(PID.TID 0000.0001) %MON dynstat_uvel_del2            =   2.3819956612528E-06
(PID.TID 0000.0001) %MON dynstat_vvel_max             =   3.2206764029919E-02
(PID.TID 0000.0001) %MON dynstat_vvel_min             =  -1.5626055694929E-02
(PID.TID 0000.0001) %MON dynstat_vvel_mean            =   8.1890569140599E-08
(PID.TID 0000.0001) %MON dynstat_vvel_sd              =   6.8040657747105E-04
(PID.TID 0000.0001) %MON dynstat_vvel_del2            =   1.7843516305448E-06
(PID.TID 0000.0001) %MON dynstat_wvel_max             =   2.0716087562154E-03
(PID.TID 0000.0001) %MON dynstat_wvel_min             =  -2.6761269864299E-03
(PID.TID 0000.0001) %MON dynstat_wvel_mean            =   4.2454512924882E-10
(PID.TID 0000.0001) %MON dynstat_wvel_sd              =   3.4643653180279E-05
(PID.TID 0000.0001) %MON dynstat_wvel_del2            =   1.3401862797638E-07
(PID.TID 0000.0001) %MON dynstat_theta_max            =   1.2000000000000E+00
(PID.TID 0000.0001) %MON dynstat_theta_min            =  -1.0000000000000E+00
(PID.TID 0000.0001) %MON dynstat_theta_mean           =   5.6490354335696E-01
(PID.TID 0000.0001) %MON dynstat_theta_sd             =   8.4883750645377E-01
(PID.TID 0000.0001) %MON dynstat_theta_del2           =   4.9297980933210E-06
(PID.TID 0000.0001) %MON dynstat_salt_max             =   3.4700000000000E+01
(PID.TID 0000.0001) %MON dynstat_salt_min             =   3.4000000000000E+01
(PID.TID 0000.0001) %MON dynstat_salt_mean            =   3.4497875507602E+01
(PID.TID 0000.0001) %MON dynstat_salt_sd              =   2.7007418599750E-01
(PID.TID 0000.0001) %MON dynstat_salt_del2            =   1.9527560903527E-06
(PID.TID 0000.0001) %MON advcfl_uvel_max              =   5.3212716786054E-03
(PID.TID 0000.0001) %MON advcfl_vvel_max              =   3.2206764029919E-03
(PID.TID 0000.0001) %MON advcfl_wvel_max              =   1.3380634932150E-02
(PID.TID 0000.0001) %MON advcfl_W_hf_max              =   1.3380634932150E-02
(PID.TID 0000.0001) %MON pe_b_mean                    =  -6.8142872774677E-01
(PID.TID 0000.0001) %MON ke_max                       =   1.3182696836258E-03
(PID.TID 0000.0001) %MON ke_mean                      =   1.3897591413567E-06
(PID.TID 0000.0001) %MON ke_vol                       =   4.6183175720799E+12
(PID.TID 0000.0001) // =======================================================
(PID.TID 0000.0001) // End MONITOR dynamic field statistics
(PID.TID 0000.0001) // =======================================================
(PID.TID 0000.0001) // =======================================================
(PID.TID 0000.0001) // Begin OBCS MONITOR field statistics
(PID.TID 0000.0001) // =======================================================
(PID.TID 0000.0001) %MON obc_N_vVel_max               =   3.7796066965169E-08
(PID.TID 0000.0001) %MON obc_N_vVel_min               =   3.7796066965168E-08
(PID.TID 0000.0001) %MON obc_N_vVel_mean              =   3.7796066965168E-08
(PID.TID 0000.0001) %MON obc_N_vVel_sd                =   3.8714799753065E-15
(PID.TID 0000.0001) %MON obc_N_vVel_Int               =   2.4945404197011E+00
(PID.TID 0000.0001) // =======================================================
(PID.TID 0000.0001) // End OBCS MONITOR field statistics
(PID.TID 0000.0001) // =======================================================
 cg2d: Sum(rhs),rhsMax =   3.00642131628812E+00  4.53039728891102E+02
(PID.TID 0000.0001)      cg2d_init_res =   5.47618018911690E-06
(PID.TID 0000.0001)      cg2d_iters(min,last) =      -1      78
(PID.TID 0000.0001)      cg2d_last_res =   8.81529026473065E-12
(PID.TID 0000.0001) // =======================================================
(PID.TID 0000.0001) // Begin MONITOR dynamic field statistics
(PID.TID 0000.0001) // =======================================================
(PID.TID 0000.0001) %MON time_tsnumber                =                  1416
(PID.TID 0000.0001) %MON time_secondsf                =   1.4160000000000E+05
(PID.TID 0000.0001) %MON dynstat_eta_max              =   5.7994046093377E+00
(PID.TID 0000.0001) %MON dynstat_eta_min              =  -1.4166830574293E+01
(PID.TID 0000.0001) %MON dynstat_eta_mean             =  -2.5222746260437E+00
(PID.TID 0000.0001) %MON dynstat_eta_sd               =   4.9405607622928E+00
(PID.TID 0000.0001) %MON dynstat_eta_del2             =   1.9059312160140E-01
(PID.TID 0000.0001) %MON dynstat_uvel_max             =   1.1803918228089E-02
(PID.TID 0000.0001) %MON dynstat_uvel_min             =  -5.3317797201052E-02
(PID.TID 0000.0001) %MON dynstat_uvel_mean            =   5.1064556250954E-09
(PID.TID 0000.0001) %MON dynstat_uvel_sd              =   1.5399595667653E-03
(PID.TID 0000.0001) %MON dynstat_uvel_del2            =   2.3875251827946E-06
(PID.TID 0000.0001) %MON dynstat_vvel_max             =   3.2249595398967E-02
(PID.TID 0000.0001) %MON dynstat_vvel_min             =  -1.5667380853388E-02
(PID.TID 0000.0001) %MON dynstat_vvel_mean            =   7.8258508978856E-08
(PID.TID 0000.0001) %MON dynstat_vvel_sd              =   6.8172442191882E-04
(PID.TID 0000.0001) %MON dynstat_vvel_del2            =   1.7875115110604E-06
(PID.TID 0000.0001) %MON dynstat_wvel_max             =   2.0751356296214E-03
(PID.TID 0000.0001) %MON dynstat_wvel_min             =  -2.6803422384791E-03
(PID.TID 0000.0001) %MON dynstat_wvel_mean            =   4.2939142784021E-10
(PID.TID 0000.0001) %MON dynstat_wvel_sd              =   3.4707043371574E-05
(PID.TID 0000.0001) %MON dynstat_wvel_del2            =   1.3421502068649E-07
(PID.TID 0000.0001) %MON dynstat_theta_max            =   1.2000000000000E+00
(PID.TID 0000.0001) %MON dynstat_theta_min            =  -1.0000000000000E+00
(PID.TID 0000.0001) %MON dynstat_theta_mean           =   5.6490244883065E-01
(PID.TID 0000.0001) %MON dynstat_theta_sd             =   8.4883701497677E-01
(PID.TID 0000.0001) %MON dynstat_theta_del2           =   4.9383750503984E-06
(PID.TID 0000.0001) %MON dynstat_salt_max             =   3.4700000000000E+01
(PID.TID 0000.0001) %MON dynstat_salt_min             =   3.4000000000000E+01
(PID.TID 0000.0001) %MON dynstat_salt_mean            =   3.4497875070068E+01
(PID.TID 0000.0001) %MON dynstat_salt_sd              =   2.7007400103384E-01
(PID.TID 0000.0001) %MON dynstat_salt_del2            =   1.9561677497665E-06
(PID.TID 0000.0001) %MON advcfl_uvel_max              =   5.3317797201052E-03
(PID.TID 0000.0001) %MON advcfl_vvel_max              =   3.2249595398967E-03
(PID.TID 0000.0001) %MON advcfl_wvel_max              =   1.3401711192396E-02
(PID.TID 0000.0001) %MON advcfl_W_hf_max              =   1.3401711192396E-02
(PID.TID 0000.0001) %MON pe_b_mean                    =  -6.8142576995842E-01
(PID.TID 0000.0001) %MON ke_max                       =   1.3240746169922E-03
(PID.TID 0000.0001) %MON ke_mean                      =   1.3958150546449E-06
(PID.TID 0000.0001) %MON ke_vol                       =   4.6183176303366E+12
(PID.TID 0000.0001) // =======================================================
(PID.TID 0000.0001) // End MONITOR dynamic field statistics
(PID.TID 0000.0001) // =======================================================
(PID.TID 0000.0001) // =======================================================
(PID.TID 0000.0001) // Begin OBCS MONITOR field statistics
(PID.TID 0000.0001) // =======================================================
(PID.TID 0000.0001) %MON obc_N_vVel_max               =   3.3954160603434E-08
(PID.TID 0000.0001) %MON obc_N_vVel_min               =   3.3954160603433E-08
(PID.TID 0000.0001) %MON obc_N_vVel_mean              =   3.3954160603433E-08
(PID.TID 0000.0001) %MON obc_N_vVel_sd                =   7.4442916783114E-15
(PID.TID 0000.0001) %MON obc_N_vVel_Int               =   2.2409745998266E+00
(PID.TID 0000.0001) // =======================================================
(PID.TID 0000.0001) // End OBCS MONITOR field statistics
(PID.TID 0000.0001) // =======================================================
 cg2d: Sum(rhs),rhsMax =   3.00640971728294E+00  4.53039707521089E+02
(PID.TID 0000.0001)      cg2d_init_res =   5.48504905527773E-06
(PID.TID 0000.0001)      cg2d_iters(min,last) =      -1      78
(PID.TID 0000.0001)      cg2d_last_res =   8.83518581201921E-12
(PID.TID 0000.0001) // =======================================================
(PID.TID 0000.0001) // Begin MONITOR dynamic field statistics
(PID.TID 0000.0001) // =======================================================
(PID.TID 0000.0001) %MON time_tsnumber                =                  1417
(PID.TID 0000.0001) %MON time_secondsf                =   1.4170000000000E+05
(PID.TID 0000.0001) %MON dynstat_eta_max              =   5.7994077477424E+00
(PID.TID 0000.0001) %MON dynstat_eta_min              =  -1.4166808738653E+01
(PID.TID 0000.0001) %MON dynstat_eta_mean             =  -2.5222647759378E+00
(PID.TID 0000.0001) %MON dynstat_eta_sd               =   4.9405579272167E+00
(PID.TID 0000.0001) %MON dynstat_eta_del2             =   1.9059315138237E-01
(PID.TID 0000.0001) %MON dynstat_uvel_max             =   1.1826896085903E-02
(PID.TID 0000.0001) %MON dynstat_uvel_min             =  -5.3423014720818E-02
(PID.TID 0000.0001) %MON dynstat_uvel_mean            =   5.0989478954916E-09
(PID.TID 0000.0001) %MON dynstat_uvel_sd              =   1.5433831324547E-03
(PID.TID 0000.0001) %MON dynstat_uvel_del2            =   2.3930659527696E-06
(PID.TID 0000.0001) %MON dynstat_vvel_max             =   3.2292432111274E-02
(PID.TID 0000.0001) %MON dynstat_vvel_min             =  -1.5708777669921E-02
(PID.TID 0000.0001) %MON dynstat_vvel_mean            =   7.5187877184709E-08
(PID.TID 0000.0001) %MON dynstat_vvel_sd              =   6.8304425200186E-04
(PID.TID 0000.0001) %MON dynstat_vvel_del2            =   1.7906744615675E-06
(PID.TID 0000.0001) %MON dynstat_wvel_max             =   2.0786642285758E-03
(PID.TID 0000.0001) %MON dynstat_wvel_min             =  -2.6845456092535E-03
(PID.TID 0000.0001) %MON dynstat_wvel_mean            =   4.3469519179686E-10
(PID.TID 0000.0001) %MON dynstat_wvel_sd              =   3.4770086986754E-05
(PID.TID 0000.0001) %MON dynstat_wvel_del2            =   1.3440941743774E-07
(PID.TID 0000.0001) %MON dynstat_theta_max            =   1.2000000000000E+00
(PID.TID 0000.0001) %MON dynstat_theta_min            =  -1.0000000000000E+00
(PID.TID 0000.0001) %MON dynstat_theta_mean           =   5.6490135240757E-01
(PID.TID 0000.0001) %MON dynstat_theta_sd             =   8.4883652271814E-01
(PID.TID 0000.0001) %MON dynstat_theta_del2           =   4.9469631670668E-06
(PID.TID 0000.0001) %MON dynstat_salt_max             =   3.4700000000000E+01
(PID.TID 0000.0001) %MON dynstat_salt_min             =   3.4000000000000E+01
(PID.TID 0000.0001) %MON dynstat_salt_mean            =   3.4497874631774E+01
(PID.TID 0000.0001) %MON dynstat_salt_sd              =   2.7007381578598E-01
(PID.TID 0000.0001) %MON dynstat_salt_del2            =   1.9595835519381E-06
(PID.TID 0000.0001) %MON advcfl_uvel_max              =   5.3423014720818E-03
(PID.TID 0000.0001) %MON advcfl_vvel_max              =   3.2292432111274E-03
(PID.TID 0000.0001) %MON advcfl_wvel_max              =   1.3422728046267E-02
(PID.TID 0000.0001) %MON advcfl_W_hf_max              =   1.3422728046267E-02
(PID.TID 0000.0001) %MON pe_b_mean                    =  -6.8142280628286E-01
(PID.TID 0000.0001) %MON ke_max                       =   1.3299005607075E-03
(PID.TID 0000.0001) %MON ke_mean                      =   1.4018944551657E-06
(PID.TID 0000.0001) %MON ke_vol                       =   4.6183176887213E+12
(PID.TID 0000.0001) // =======================================================
(PID.TID 0000.0001) // End MONITOR dynamic field statistics
(PID.TID 0000.0001) // =======================================================
(PID.TID 0000.0001) // =======================================================
(PID.TID 0000.0001) // Begin OBCS MONITOR field statistics
(PID.TID 0000.0001) // =======================================================
(PID.TID 0000.0001) %MON obc_N_vVel_max               =   3.0597852145019E-08
(PID.TID 0000.0001) %MON obc_N_vVel_min               =   3.0597852145018E-08
(PID.TID 0000.0001) %MON obc_N_vVel_mean              =   3.0597852145019E-08
(PID.TID 0000.0001) %MON obc_N_vVel_sd                =  -4.6345578181734E-29
(PID.TID 0000.0001) %MON obc_N_vVel_Int               =   2.0194582415713E+00
(PID.TID 0000.0001) // =======================================================
(PID.TID 0000.0001) // End OBCS MONITOR field statistics
(PID.TID 0000.0001) // =======================================================
 cg2d: Sum(rhs),rhsMax =   3.00639809355311E+00  4.53039686204916E+02
(PID.TID 0000.0001)      cg2d_init_res =   5.49386511305271E-06
(PID.TID 0000.0001)      cg2d_iters(min,last) =      -1      78
(PID.TID 0000.0001)      cg2d_last_res =   8.85502979108236E-12
(PID.TID 0000.0001) // =======================================================
(PID.TID 0000.0001) // Begin MONITOR dynamic field statistics
(PID.TID 0000.0001) // =======================================================
(PID.TID 0000.0001) %MON time_tsnumber                =                  1418
(PID.TID 0000.0001) %MON time_secondsf                =   1.4180000000000E+05
(PID.TID 0000.0001) %MON dynstat_eta_max              =   5.7994108948921E+00
(PID.TID 0000.0001) %MON dynstat_eta_min              =  -1.4166786848877E+01
(PID.TID 0000.0001) %MON dynstat_eta_mean             =  -2.5222549053896E+00
(PID.TID 0000.0001) %MON dynstat_eta_sd               =   4.9405550865954E+00
(PID.TID 0000.0001) %MON dynstat_eta_del2             =   1.9059318121315E-01
(PID.TID 0000.0001) %MON dynstat_uvel_max             =   1.1849878510382E-02
(PID.TID 0000.0001) %MON dynstat_uvel_min             =  -5.3528369172430E-02
(PID.TID 0000.0001) %MON dynstat_uvel_mean            =   5.0883841270751E-09
(PID.TID 0000.0001) %MON dynstat_uvel_sd              =   1.5468125988692E-03
(PID.TID 0000.0001) %MON dynstat_uvel_del2            =   2.3986179849121E-06
(PID.TID 0000.0001) %MON dynstat_vvel_max             =   3.2335274132024E-02
(PID.TID 0000.0001) %MON dynstat_vvel_min             =  -1.5750246068295E-02
(PID.TID 0000.0001) %MON dynstat_vvel_mean            =   7.2742334794465E-08
(PID.TID 0000.0001) %MON dynstat_vvel_sd              =   6.8436607905387E-04
(PID.TID 0000.0001) %MON dynstat_vvel_del2            =   1.7938405929261E-06
(PID.TID 0000.0001) %MON dynstat_wvel_max             =   2.0821945392029E-03
(PID.TID 0000.0001) %MON dynstat_wvel_min             =  -2.6887369692442E-03
(PID.TID 0000.0001) %MON dynstat_wvel_mean            =   4.4035742081817E-10
(PID.TID 0000.0001) %MON dynstat_wvel_sd              =   3.4832851354438E-05
(PID.TID 0000.0001) %MON dynstat_wvel_del2            =   1.3460223244076E-07
(PID.TID 0000.0001) %MON dynstat_theta_max            =   1.2000000000000E+00
(PID.TID 0000.0001) %MON dynstat_theta_min            =  -1.0000000000000E+00
(PID.TID 0000.0001) %MON dynstat_theta_mean           =   5.6490025408592E-01
(PID.TID 0000.0001) %MON dynstat_theta_sd             =   8.4883602967806E-01
(PID.TID 0000.0001) %MON dynstat_theta_del2           =   4.9555617621725E-06
(PID.TID 0000.0001) %MON dynstat_salt_max             =   3.4700000000000E+01
(PID.TID 0000.0001) %MON dynstat_salt_min             =   3.4000000000000E+01
(PID.TID 0000.0001) %MON dynstat_salt_mean            =   3.4497874192718E+01
(PID.TID 0000.0001) %MON dynstat_salt_sd              =   2.7007363025404E-01
(PID.TID 0000.0001) %MON dynstat_salt_del2            =   1.9630034558593E-06
(PID.TID 0000.0001) %MON advcfl_uvel_max              =   5.3528369172430E-03
(PID.TID 0000.0001) %MON advcfl_vvel_max              =   3.2335274132024E-03
(PID.TID 0000.0001) %MON advcfl_wvel_max              =   1.3443684846221E-02
(PID.TID 0000.0001) %MON advcfl_W_hf_max              =   1.3443684846221E-02
(PID.TID 0000.0001) %MON pe_b_mean                    =  -6.8141983684972E-01
(PID.TID 0000.0001) %MON ke_max                       =   1.3357475661029E-03
(PID.TID 0000.0001) %MON ke_mean                      =   1.4079974204533E-06
(PID.TID 0000.0001) %MON ke_vol                       =   4.6183177472309E+12
(PID.TID 0000.0001) // =======================================================
(PID.TID 0000.0001) // End MONITOR dynamic field statistics
(PID.TID 0000.0001) // =======================================================
(PID.TID 0000.0001) // =======================================================
(PID.TID 0000.0001) // Begin OBCS MONITOR field statistics
(PID.TID 0000.0001) // =======================================================
(PID.TID 0000.0001) %MON obc_N_vVel_max               =   2.7795727361979E-08
(PID.TID 0000.0001) %MON obc_N_vVel_min               =   2.7795727361978E-08
(PID.TID 0000.0001) %MON obc_N_vVel_mean              =   2.7795727361979E-08
(PID.TID 0000.0001) %MON obc_N_vVel_sd                =  -2.3271396704020E-29
(PID.TID 0000.0001) %MON obc_N_vVel_Int               =   1.8345180058906E+00
(PID.TID 0000.0001) // =======================================================
(PID.TID 0000.0001) // End OBCS MONITOR field statistics
(PID.TID 0000.0001) // =======================================================
 cg2d: Sum(rhs),rhsMax =   3.00638644575854E+00  4.53039664960052E+02
(PID.TID 0000.0001)      cg2d_init_res =   5.50264487336033E-06
(PID.TID 0000.0001)      cg2d_iters(min,last) =      -1      78
(PID.TID 0000.0001)      cg2d_last_res =   8.87480119449178E-12
(PID.TID 0000.0001) // =======================================================
(PID.TID 0000.0001) // Begin MONITOR dynamic field statistics
(PID.TID 0000.0001) // =======================================================
(PID.TID 0000.0001) %MON time_tsnumber                =                  1419
(PID.TID 0000.0001) %MON time_secondsf                =   1.4190000000000E+05
(PID.TID 0000.0001) %MON dynstat_eta_max              =   5.7994140496325E+00
(PID.TID 0000.0001) %MON dynstat_eta_min              =  -1.4166764906255E+01
(PID.TID 0000.0001) %MON dynstat_eta_mean             =  -2.5222450150498E+00
(PID.TID 0000.0001) %MON dynstat_eta_sd               =   4.9405522406919E+00
(PID.TID 0000.0001) %MON dynstat_eta_del2             =   1.9059321109447E-01
(PID.TID 0000.0001) %MON dynstat_uvel_max             =   1.1872865194633E-02
(PID.TID 0000.0001) %MON dynstat_uvel_min             =  -5.3633860368799E-02
(PID.TID 0000.0001) %MON dynstat_uvel_mean            =   5.0753266010941E-09
(PID.TID 0000.0001) %MON dynstat_uvel_sd              =   1.5502479675165E-03
(PID.TID 0000.0001) %MON dynstat_uvel_del2            =   2.4041812931627E-06
(PID.TID 0000.0001) %MON dynstat_vvel_max             =   3.2378121423952E-02
(PID.TID 0000.0001) %MON dynstat_vvel_min             =  -1.5791785968494E-02
(PID.TID 0000.0001) %MON dynstat_vvel_mean            =   7.0972108209528E-08
(PID.TID 0000.0001) %MON dynstat_vvel_sd              =   6.8568991886166E-04
(PID.TID 0000.0001) %MON dynstat_vvel_del2            =   1.7970100259013E-06
(PID.TID 0000.0001) %MON dynstat_wvel_max             =   2.0857265475663E-03
(PID.TID 0000.0001) %MON dynstat_wvel_min             =  -2.6929161698757E-03
(PID.TID 0000.0001) %MON dynstat_wvel_mean            =   4.4627297686534E-10
(PID.TID 0000.0001) %MON dynstat_wvel_sd              =   3.4895415819593E-05
(PID.TID 0000.0001) %MON dynstat_wvel_del2            =   1.3479395182117E-07
(PID.TID 0000.0001) %MON dynstat_theta_max            =   1.2000000000000E+00
(PID.TID 0000.0001) %MON dynstat_theta_min            =  -1.0000000000000E+00
(PID.TID 0000.0001) %MON dynstat_theta_mean           =   5.6489915386373E-01
(PID.TID 0000.0001) %MON dynstat_theta_sd             =   8.4883553585612E-01
(PID.TID 0000.0001) %MON dynstat_theta_del2           =   4.9641705941372E-06
(PID.TID 0000.0001) %MON dynstat_salt_max             =   3.4700000000000E+01
(PID.TID 0000.0001) %MON dynstat_salt_min             =   3.4000000000000E+01
(PID.TID 0000.0001) %MON dynstat_salt_mean            =   3.4497873752900E+01
(PID.TID 0000.0001) %MON dynstat_salt_sd              =   2.7007344443788E-01
(PID.TID 0000.0001) %MON dynstat_salt_del2            =   1.9664273823963E-06
(PID.TID 0000.0001) %MON advcfl_uvel_max              =   5.3633860368799E-03
(PID.TID 0000.0001) %MON advcfl_vvel_max              =   3.2378121423952E-03
(PID.TID 0000.0001) %MON advcfl_wvel_max              =   1.3464580849378E-02
(PID.TID 0000.0001) %MON advcfl_W_hf_max              =   1.3464580849378E-02
(PID.TID 0000.0001) %MON pe_b_mean                    =  -6.8141686179819E-01
(PID.TID 0000.0001) %MON ke_max                       =   1.3416156842782E-03
(PID.TID 0000.0001) %MON ke_mean                      =   1.4141240311113E-06
(PID.TID 0000.0001) %MON ke_vol                       =   4.6183178058620E+12
(PID.TID 0000.0001) // =======================================================
(PID.TID 0000.0001) // End MONITOR dynamic field statistics
(PID.TID 0000.0001) // =======================================================
(PID.TID 0000.0001) // =======================================================
(PID.TID 0000.0001) // Begin OBCS MONITOR field statistics
(PID.TID 0000.0001) // =======================================================
(PID.TID 0000.0001) %MON obc_N_vVel_max               =   2.5604306009209E-08
(PID.TID 0000.0001) %MON obc_N_vVel_min               =   2.5604306009208E-08
(PID.TID 0000.0001) %MON obc_N_vVel_mean              =   2.5604306009208E-08
(PID.TID 0000.0001) %MON obc_N_vVel_sd                =   4.7102773760513E-15
(PID.TID 0000.0001) %MON obc_N_vVel_Int               =   1.6898841966078E+00
(PID.TID 0000.0001) // =======================================================
(PID.TID 0000.0001) // End OBCS MONITOR field statistics
(PID.TID 0000.0001) // =======================================================
 cg2d: Sum(rhs),rhsMax =   3.00637477462923E+00  4.53039643802304E+02
(PID.TID 0000.0001)      cg2d_init_res =   5.51139034054551E-06
(PID.TID 0000.0001)      cg2d_iters(min,last) =      -1      78
(PID.TID 0000.0001)      cg2d_last_res =   8.89447424138543E-12
(PID.TID 0000.0001) // =======================================================
(PID.TID 0000.0001) // Begin MONITOR dynamic field statistics
(PID.TID 0000.0001) // =======================================================
(PID.TID 0000.0001) %MON time_tsnumber                =                  1420
(PID.TID 0000.0001) %MON time_secondsf                =   1.4200000000000E+05
(PID.TID 0000.0001) %MON dynstat_eta_max              =   5.7994172107469E+00
(PID.TID 0000.0001) %MON dynstat_eta_min              =  -1.4166742912132E+01
(PID.TID 0000.0001) %MON dynstat_eta_mean             =  -2.5222351056190E+00
(PID.TID 0000.0001) %MON dynstat_eta_sd               =   4.9405493897746E+00
(PID.TID 0000.0001) %MON dynstat_eta_del2             =   1.9059324102707E-01
(PID.TID 0000.0001) %MON dynstat_uvel_max             =   1.1895855829606E-02
(PID.TID 0000.0001) %MON dynstat_uvel_min             =  -5.3739488109117E-02
(PID.TID 0000.0001) %MON dynstat_uvel_mean            =   5.0603873112149E-09
(PID.TID 0000.0001) %MON dynstat_uvel_sd              =   1.5536892398122E-03
(PID.TID 0000.0001) %MON dynstat_uvel_del2            =   2.4097558914830E-06
(PID.TID 0000.0001) %MON dynstat_vvel_max             =   3.2420973947197E-02
(PID.TID 0000.0001) %MON dynstat_vvel_min             =  -1.5833397286357E-02
(PID.TID 0000.0001) %MON dynstat_vvel_mean            =   6.9913087725576E-08
(PID.TID 0000.0001) %MON dynstat_vvel_sd              =   6.8701579046544E-04
(PID.TID 0000.0001) %MON dynstat_vvel_del2            =   1.8001828812859E-06
(PID.TID 0000.0001) %MON dynstat_wvel_max             =   2.0892602396462E-03
(PID.TID 0000.0001) %MON dynstat_wvel_min             =  -2.6970830557316E-03
(PID.TID 0000.0001) %MON dynstat_wvel_mean            =   4.5233274391130E-10
(PID.TID 0000.0001) %MON dynstat_wvel_sd              =   3.4957865871032E-05
(PID.TID 0000.0001) %MON dynstat_wvel_del2            =   1.3498509189605E-07
(PID.TID 0000.0001) %MON dynstat_theta_max            =   1.2000000000000E+00
(PID.TID 0000.0001) %MON dynstat_theta_min            =  -1.0000000000000E+00
(PID.TID 0000.0001) %MON dynstat_theta_mean           =   5.6489805173911E-01
(PID.TID 0000.0001) %MON dynstat_theta_sd             =   8.4883504125178E-01
(PID.TID 0000.0001) %MON dynstat_theta_del2           =   4.9727894475021E-06
(PID.TID 0000.0001) %MON dynstat_salt_max             =   3.4700000000000E+01
(PID.TID 0000.0001) %MON dynstat_salt_min             =   3.4000000000000E+01
(PID.TID 0000.0001) %MON dynstat_salt_mean            =   3.4497873312318E+01
(PID.TID 0000.0001) %MON dynstat_salt_sd              =   2.7007325833736E-01
(PID.TID 0000.0001) %MON dynstat_salt_del2            =   1.9698552875460E-06
(PID.TID 0000.0001) %MON advcfl_uvel_max              =   5.3739488109117E-03
(PID.TID 0000.0001) %MON advcfl_vvel_max              =   3.2420973947197E-03
(PID.TID 0000.0001) %MON advcfl_wvel_max              =   1.3485415278658E-02
(PID.TID 0000.0001) %MON advcfl_W_hf_max              =   1.3485415278658E-02
(PID.TID 0000.0001) %MON pe_b_mean                    =  -6.8141388127461E-01
(PID.TID 0000.0001) %MON ke_max                       =   1.3475049661157E-03
(PID.TID 0000.0001) %MON ke_mean                      =   1.4202743700566E-06
(PID.TID 0000.0001) %MON ke_vol                       =   4.6183178646106E+12
(PID.TID 0000.0001) // =======================================================
(PID.TID 0000.0001) // End MONITOR dynamic field statistics
(PID.TID 0000.0001) // =======================================================
(PID.TID 0000.0001) // =======================================================
(PID.TID 0000.0001) // Begin OBCS MONITOR field statistics
(PID.TID 0000.0001) // =======================================================
(PID.TID 0000.0001) %MON obc_N_vVel_max               =   2.4067017984454E-08
(PID.TID 0000.0001) %MON obc_N_vVel_min               =   2.4067017984453E-08
(PID.TID 0000.0001) %MON obc_N_vVel_mean              =   2.4067017984453E-08
(PID.TID 0000.0001) %MON obc_N_vVel_sd                =   4.1777443109907E-15
(PID.TID 0000.0001) %MON obc_N_vVel_Int               =   1.5884231869739E+00
(PID.TID 0000.0001) // =======================================================
(PID.TID 0000.0001) // End OBCS MONITOR field statistics
(PID.TID 0000.0001) // =======================================================
 cg2d: Sum(rhs),rhsMax =   3.00636308094797E+00  4.53039622745525E+02
(PID.TID 0000.0001)      cg2d_init_res =   5.52011313348355E-06
(PID.TID 0000.0001)      cg2d_iters(min,last) =      -1      78
(PID.TID 0000.0001)      cg2d_last_res =   8.91403522841452E-12
(PID.TID 0000.0001) // =======================================================
(PID.TID 0000.0001) // Begin MONITOR dynamic field statistics
(PID.TID 0000.0001) // =======================================================
(PID.TID 0000.0001) %MON time_tsnumber                =                  1421
(PID.TID 0000.0001) %MON time_secondsf                =   1.4210000000000E+05
(PID.TID 0000.0001) %MON dynstat_eta_max              =   5.7994203769861E+00
(PID.TID 0000.0001) %MON dynstat_eta_min              =  -1.4166720867901E+01
(PID.TID 0000.0001) %MON dynstat_eta_mean             =  -2.5222251778310E+00
(PID.TID 0000.0001) %MON dynstat_eta_sd               =   4.9405465341085E+00
(PID.TID 0000.0001) %MON dynstat_eta_del2             =   1.9059327101159E-01
(PID.TID 0000.0001) %MON dynstat_uvel_max             =   1.1918850104314E-02
(PID.TID 0000.0001) %MON dynstat_uvel_min             =  -5.3845252178847E-02
(PID.TID 0000.0001) %MON dynstat_uvel_mean            =   5.0442155806676E-09
(PID.TID 0000.0001) %MON dynstat_uvel_sd              =   1.5571364170948E-03
(PID.TID 0000.0001) %MON dynstat_uvel_del2            =   2.4153417938526E-06
(PID.TID 0000.0001) %MON dynstat_vvel_max             =   3.2463831659288E-02
(PID.TID 0000.0001) %MON dynstat_vvel_min             =  -1.5875079933402E-02
(PID.TID 0000.0001) %MON dynstat_vvel_mean            =   6.9586231965152E-08
(PID.TID 0000.0001) %MON dynstat_vvel_sd              =   6.8834371489170E-04
(PID.TID 0000.0001) %MON dynstat_vvel_del2            =   1.8033592709295E-06
(PID.TID 0000.0001) %MON dynstat_wvel_max             =   2.0927956013370E-03
(PID.TID 0000.0001) %MON dynstat_wvel_min             =  -2.7012374711118E-03
(PID.TID 0000.0001) %MON dynstat_wvel_mean            =   4.5842580747021E-10
(PID.TID 0000.0001) %MON dynstat_wvel_sd              =   3.5020287160082E-05
(PID.TID 0000.0001) %MON dynstat_wvel_del2            =   1.3517615648113E-07
(PID.TID 0000.0001) %MON dynstat_theta_max            =   1.2000000000000E+00
(PID.TID 0000.0001) %MON dynstat_theta_min            =  -1.0000000000000E+00
(PID.TID 0000.0001) %MON dynstat_theta_mean           =   5.6489694771016E-01
(PID.TID 0000.0001) %MON dynstat_theta_sd             =   8.4883454586385E-01
(PID.TID 0000.0001) %MON dynstat_theta_del2           =   4.9814180918372E-06
(PID.TID 0000.0001) %MON dynstat_salt_max             =   3.4700000000000E+01
(PID.TID 0000.0001) %MON dynstat_salt_min             =   3.4000000000000E+01
(PID.TID 0000.0001) %MON dynstat_salt_mean            =   3.4497872870971E+01
(PID.TID 0000.0001) %MON dynstat_salt_sd              =   2.7007307195250E-01
(PID.TID 0000.0001) %MON dynstat_salt_del2            =   1.9732870929994E-06
(PID.TID 0000.0001) %MON advcfl_uvel_max              =   5.3845252178847E-03
(PID.TID 0000.0001) %MON advcfl_vvel_max              =   3.2463831659288E-03
(PID.TID 0000.0001) %MON advcfl_wvel_max              =   1.3506187355559E-02
(PID.TID 0000.0001) %MON advcfl_W_hf_max              =   1.3506187355559E-02
(PID.TID 0000.0001) %MON pe_b_mean                    =  -6.8141089542897E-01
(PID.TID 0000.0001) %MON ke_max                       =   1.3534154622840E-03
(PID.TID 0000.0001) %MON ke_mean                      =   1.4264485216905E-06
(PID.TID 0000.0001) %MON ke_vol                       =   4.6183179234726E+12
(PID.TID 0000.0001) // =======================================================
(PID.TID 0000.0001) // End MONITOR dynamic field statistics
(PID.TID 0000.0001) // =======================================================
(PID.TID 0000.0001) // =======================================================
(PID.TID 0000.0001) // Begin OBCS MONITOR field statistics
(PID.TID 0000.0001) // =======================================================
(PID.TID 0000.0001) %MON obc_N_vVel_max               =   2.3213462740306E-08
(PID.TID 0000.0001) %MON obc_N_vVel_min               =   2.3213462740306E-08
(PID.TID 0000.0001) %MON obc_N_vVel_mean              =   2.3213462740306E-08
(PID.TID 0000.0001) %MON obc_N_vVel_sd                =  -4.9501021802618E-29
(PID.TID 0000.0001) %MON obc_N_vVel_Int               =   1.5320885408602E+00
(PID.TID 0000.0001) // =======================================================
(PID.TID 0000.0001) // End OBCS MONITOR field statistics
(PID.TID 0000.0001) // =======================================================
 cg2d: Sum(rhs),rhsMax =   3.00635136553211E+00  4.53039601801306E+02
(PID.TID 0000.0001)      cg2d_init_res =   5.52882094705769E-06
(PID.TID 0000.0001)      cg2d_iters(min,last) =      -1      78
(PID.TID 0000.0001)      cg2d_last_res =   8.93348669888634E-12
(PID.TID 0000.0001) // =======================================================
(PID.TID 0000.0001) // Begin MONITOR dynamic field statistics
(PID.TID 0000.0001) // =======================================================
(PID.TID 0000.0001) %MON time_tsnumber                =                  1422
(PID.TID 0000.0001) %MON time_secondsf                =   1.4220000000000E+05
(PID.TID 0000.0001) %MON dynstat_eta_max              =   5.7994235470915E+00
(PID.TID 0000.0001) %MON dynstat_eta_min              =  -1.4166698774950E+01
(PID.TID 0000.0001) %MON dynstat_eta_mean             =  -2.5222152324361E+00
(PID.TID 0000.0001) %MON dynstat_eta_sd               =   4.9405436739513E+00
(PID.TID 0000.0001) %MON dynstat_eta_del2             =   1.9059330104873E-01
(PID.TID 0000.0001) %MON dynstat_uvel_max             =   1.1941847705851E-02
(PID.TID 0000.0001) %MON dynstat_uvel_min             =  -5.3951152349524E-02
(PID.TID 0000.0001) %MON dynstat_uvel_mean            =   5.0274799290404E-09
(PID.TID 0000.0001) %MON dynstat_uvel_sd              =   1.5605895006339E-03
(PID.TID 0000.0001) %MON dynstat_uvel_del2            =   2.4209390142511E-06
(PID.TID 0000.0001) %MON dynstat_vvel_max             =   3.2506694515092E-02
(PID.TID 0000.0001) %MON dynstat_vvel_min             =  -1.5916833817045E-02
(PID.TID 0000.0001) %MON dynstat_vvel_mean            =   6.9997279249633E-08
(PID.TID 0000.0001) %MON dynstat_vvel_sd              =   6.8967371384464E-04
(PID.TID 0000.0001) %MON dynstat_vvel_del2            =   1.8065392890014E-06
(PID.TID 0000.0001) %MON dynstat_wvel_max             =   2.0963326184546E-03
(PID.TID 0000.0001) %MON dynstat_wvel_min             =  -2.7053792600565E-03
(PID.TID 0000.0001) %MON dynstat_wvel_mean            =   4.6444153324647E-10
(PID.TID 0000.0001) %MON dynstat_wvel_sd              =   3.5082759871497E-05
(PID.TID 0000.0001) %MON dynstat_wvel_del2            =   1.3536759686164E-07
(PID.TID 0000.0001) %MON dynstat_theta_max            =   1.2000000000000E+00
(PID.TID 0000.0001) %MON dynstat_theta_min            =  -1.0000000000000E+00
(PID.TID 0000.0001) %MON dynstat_theta_mean           =   5.6489584177487E-01
(PID.TID 0000.0001) %MON dynstat_theta_sd             =   8.4883404969203E-01
(PID.TID 0000.0001) %MON dynstat_theta_del2           =   4.9900563163006E-06
(PID.TID 0000.0001) %MON dynstat_salt_max             =   3.4700000000000E+01
(PID.TID 0000.0001) %MON dynstat_salt_min             =   3.4000000000000E+01
(PID.TID 0000.0001) %MON dynstat_salt_mean            =   3.4497872428860E+01
(PID.TID 0000.0001) %MON dynstat_salt_sd              =   2.7007288528311E-01
(PID.TID 0000.0001) %MON dynstat_salt_del2            =   1.9767227408047E-06
(PID.TID 0000.0001) %MON advcfl_uvel_max              =   5.3951152349524E-03
(PID.TID 0000.0001) %MON advcfl_vvel_max              =   3.2506694515092E-03
(PID.TID 0000.0001) %MON advcfl_wvel_max              =   1.3526896300283E-02
(PID.TID 0000.0001) %MON advcfl_W_hf_max              =   1.3526896300283E-02
(PID.TID 0000.0001) %MON pe_b_mean                    =  -6.8140790441147E-01
(PID.TID 0000.0001) %MON ke_max                       =   1.3593472232258E-03
(PID.TID 0000.0001) %MON ke_mean                      =   1.4326465710216E-06
(PID.TID 0000.0001) %MON ke_vol                       =   4.6183179824437E+12
(PID.TID 0000.0001) // =======================================================
(PID.TID 0000.0001) // End MONITOR dynamic field statistics
(PID.TID 0000.0001) // =======================================================
(PID.TID 0000.0001) // =======================================================
(PID.TID 0000.0001) // Begin OBCS MONITOR field statistics
(PID.TID 0000.0001) // =======================================================
(PID.TID 0000.0001) %MON obc_N_vVel_max               =   2.3058928978420E-08
(PID.TID 0000.0001) %MON obc_N_vVel_min               =   2.3058928978419E-08
(PID.TID 0000.0001) %MON obc_N_vVel_mean              =   2.3058928978420E-08
(PID.TID 0000.0001) %MON obc_N_vVel_sd                =  -6.9025329206839E-31
(PID.TID 0000.0001) %MON obc_N_vVel_Int               =   1.5218893125757E+00
(PID.TID 0000.0001) // =======================================================
(PID.TID 0000.0001) // End OBCS MONITOR field statistics
(PID.TID 0000.0001) // =======================================================
 cg2d: Sum(rhs),rhsMax =   3.00633962921645E+00  4.53039580978775E+02
(PID.TID 0000.0001)      cg2d_init_res =   5.53752396601418E-06
(PID.TID 0000.0001)      cg2d_iters(min,last) =      -1      78
(PID.TID 0000.0001)      cg2d_last_res =   8.95282455330506E-12
(PID.TID 0000.0001) // =======================================================
(PID.TID 0000.0001) // Begin MONITOR dynamic field statistics
(PID.TID 0000.0001) // =======================================================
(PID.TID 0000.0001) %MON time_tsnumber                =                  1423
(PID.TID 0000.0001) %MON time_secondsf                =   1.4230000000000E+05
(PID.TID 0000.0001) %MON dynstat_eta_max              =   5.7994267198247E+00
(PID.TID 0000.0001) %MON dynstat_eta_min              =  -1.4166676634646E+01
(PID.TID 0000.0001) %MON dynstat_eta_mean             =  -2.5222052701854E+00
(PID.TID 0000.0001) %MON dynstat_eta_sd               =   4.9405408095481E+00
(PID.TID 0000.0001) %MON dynstat_eta_del2             =   1.9059333113913E-01
(PID.TID 0000.0001) %MON dynstat_uvel_max             =   1.1964848319300E-02
(PID.TID 0000.0001) %MON dynstat_uvel_min             =  -5.4057188378575E-02
(PID.TID 0000.0001) %MON dynstat_uvel_mean            =   5.0108582697704E-09
(PID.TID 0000.0001) %MON dynstat_uvel_sd              =   1.5640484916307E-03
(PID.TID 0000.0001) %MON dynstat_uvel_del2            =   2.4265475666636E-06
(PID.TID 0000.0001) %MON dynstat_vvel_max             =   3.2549562466702E-02
(PID.TID 0000.0001) %MON dynstat_vvel_min             =  -1.5958658840576E-02
(PID.TID 0000.0001) %MON dynstat_vvel_mean            =   7.1136774679765E-08
(PID.TID 0000.0001) %MON dynstat_vvel_sd              =   6.9100580853127E-04
(PID.TID 0000.0001) %MON dynstat_vvel_del2            =   1.8097230053545E-06
(PID.TID 0000.0001) %MON dynstat_wvel_max             =   2.0998712767438E-03
(PID.TID 0000.0001) %MON dynstat_wvel_min             =  -2.7095082662937E-03
(PID.TID 0000.0001) %MON dynstat_wvel_mean            =   4.7027204597710E-10
(PID.TID 0000.0001) %MON dynstat_wvel_sd              =   3.5145353890288E-05
(PID.TID 0000.0001) %MON dynstat_wvel_del2            =   1.3555977800723E-07
(PID.TID 0000.0001) %MON dynstat_theta_max            =   1.2000000000000E+00
(PID.TID 0000.0001) %MON dynstat_theta_min            =  -1.0000000000000E+00
(PID.TID 0000.0001) %MON dynstat_theta_mean           =   5.6489473393112E-01
(PID.TID 0000.0001) %MON dynstat_theta_sd             =   8.4883355273550E-01
(PID.TID 0000.0001) %MON dynstat_theta_del2           =   4.9987039357388E-06
(PID.TID 0000.0001) %MON dynstat_salt_max             =   3.4700000000000E+01
(PID.TID 0000.0001) %MON dynstat_salt_min             =   3.4000000000000E+01
(PID.TID 0000.0001) %MON dynstat_salt_mean            =   3.4497871985982E+01
(PID.TID 0000.0001) %MON dynstat_salt_sd              =   2.7007269832900E-01
(PID.TID 0000.0001) %MON dynstat_salt_del2            =   1.9801621811927E-06
(PID.TID 0000.0001) %MON advcfl_uvel_max              =   5.4057188378575E-03
(PID.TID 0000.0001) %MON advcfl_vvel_max              =   3.2549562466702E-03
(PID.TID 0000.0001) %MON advcfl_wvel_max              =   1.3547541331469E-02
(PID.TID 0000.0001) %MON advcfl_W_hf_max              =   1.3547541331469E-02
(PID.TID 0000.0001) %MON pe_b_mean                    =  -6.8140490836947E-01
(PID.TID 0000.0001) %MON ke_max                       =   1.3653002991439E-03
(PID.TID 0000.0001) %MON ke_mean                      =   1.4388686028585E-06
(PID.TID 0000.0001) %MON ke_vol                       =   4.6183180415193E+12
(PID.TID 0000.0001) // =======================================================
(PID.TID 0000.0001) // End MONITOR dynamic field statistics
(PID.TID 0000.0001) // =======================================================
(PID.TID 0000.0001) // =======================================================
(PID.TID 0000.0001) // Begin OBCS MONITOR field statistics
(PID.TID 0000.0001) // =======================================================
(PID.TID 0000.0001) %MON obc_N_vVel_max               =   2.3604223906036E-08
(PID.TID 0000.0001) %MON obc_N_vVel_min               =   2.3604223906036E-08
(PID.TID 0000.0001) %MON obc_N_vVel_mean              =   2.3604223906036E-08
(PID.TID 0000.0001) %MON obc_N_vVel_sd                =  -1.4100888680826E-29
(PID.TID 0000.0001) %MON obc_N_vVel_Int               =   1.5578787777984E+00
(PID.TID 0000.0001) // =======================================================
(PID.TID 0000.0001) // End OBCS MONITOR field statistics
(PID.TID 0000.0001) // =======================================================
 cg2d: Sum(rhs),rhsMax =   3.00632787283653E+00  4.53039560284379E+02
(PID.TID 0000.0001)      cg2d_init_res =   5.54623149022345E-06
(PID.TID 0000.0001)      cg2d_iters(min,last) =      -1      78
(PID.TID 0000.0001)      cg2d_last_res =   8.97203859361926E-12
(PID.TID 0000.0001) // =======================================================
(PID.TID 0000.0001) // Begin MONITOR dynamic field statistics
(PID.TID 0000.0001) // =======================================================
(PID.TID 0000.0001) %MON time_tsnumber                =                  1424
(PID.TID 0000.0001) %MON time_secondsf                =   1.4240000000000E+05
(PID.TID 0000.0001) %MON dynstat_eta_max              =   5.7994298939932E+00
(PID.TID 0000.0001) %MON dynstat_eta_min              =  -1.4166654448306E+01
(PID.TID 0000.0001) %MON dynstat_eta_mean             =  -2.5221952918158E+00
(PID.TID 0000.0001) %MON dynstat_eta_sd               =   4.9405379411251E+00
(PID.TID 0000.0001) %MON dynstat_eta_del2             =   1.9059336128336E-01
(PID.TID 0000.0001) %MON dynstat_uvel_max             =   1.1987851627792E-02
(PID.TID 0000.0001) %MON dynstat_uvel_min             =  -5.4163360009237E-02
(PID.TID 0000.0001) %MON dynstat_uvel_mean            =   4.9950200283361E-09
(PID.TID 0000.0001) %MON dynstat_uvel_sd              =   1.5675133912208E-03
(PID.TID 0000.0001) %MON dynstat_uvel_del2            =   2.4321674650859E-06
(PID.TID 0000.0001) %MON dynstat_vvel_max             =   3.2592435463609E-02
(PID.TID 0000.0001) %MON dynstat_vvel_min             =  -1.6000554902732E-02
(PID.TID 0000.0001) %MON dynstat_vvel_mean            =   7.2980406351139E-08
(PID.TID 0000.0001) %MON dynstat_vvel_sd              =   6.9234001864307E-04
(PID.TID 0000.0001) %MON dynstat_vvel_del2            =   1.8129104610289E-06
(PID.TID 0000.0001) %MON dynstat_wvel_max             =   2.1034115618639E-03
(PID.TID 0000.0001) %MON dynstat_wvel_min             =  -2.7136243332031E-03
(PID.TID 0000.0001) %MON dynstat_wvel_mean            =   4.7581408830726E-10
(PID.TID 0000.0001) %MON dynstat_wvel_sd              =   3.5208125094498E-05
(PID.TID 0000.0001) %MON dynstat_wvel_del2            =   1.3575295364834E-07
(PID.TID 0000.0001) %MON dynstat_theta_max            =   1.2000000000000E+00
(PID.TID 0000.0001) %MON dynstat_theta_min            =  -1.0000000000000E+00
(PID.TID 0000.0001) %MON dynstat_theta_mean           =   5.6489362417682E-01
(PID.TID 0000.0001) %MON dynstat_theta_sd             =   8.4883305499341E-01
(PID.TID 0000.0001) %MON dynstat_theta_del2           =   5.0073607975232E-06
(PID.TID 0000.0001) %MON dynstat_salt_max             =   3.4700000000000E+01
(PID.TID 0000.0001) %MON dynstat_salt_min             =   3.4000000000000E+01
(PID.TID 0000.0001) %MON dynstat_salt_mean            =   3.4497871542337E+01
(PID.TID 0000.0001) %MON dynstat_salt_sd              =   2.7007251109000E-01
(PID.TID 0000.0001) %MON dynstat_salt_del2            =   1.9836053734424E-06
(PID.TID 0000.0001) %MON advcfl_uvel_max              =   5.4163360009237E-03
(PID.TID 0000.0001) %MON advcfl_vvel_max              =   3.2592435463609E-03
(PID.TID 0000.0001) %MON advcfl_wvel_max              =   1.3568121666016E-02
(PID.TID 0000.0001) %MON advcfl_W_hf_max              =   1.3568121666016E-02
(PID.TID 0000.0001) %MON pe_b_mean                    =  -6.8140190744432E-01
(PID.TID 0000.0001) %MON ke_max                       =   1.3712747400002E-03
(PID.TID 0000.0001) %MON ke_mean                      =   1.4451147011055E-06
(PID.TID 0000.0001) %MON ke_vol                       =   4.6183181006951E+12
(PID.TID 0000.0001) // =======================================================
(PID.TID 0000.0001) // End MONITOR dynamic field statistics
(PID.TID 0000.0001) // =======================================================
(PID.TID 0000.0001) // =======================================================
(PID.TID 0000.0001) // Begin OBCS MONITOR field statistics
(PID.TID 0000.0001) // =======================================================
(PID.TID 0000.0001) %MON obc_N_vVel_max               =   2.4835804078618E-08
(PID.TID 0000.0001) %MON obc_N_vVel_min               =   2.4835804078617E-08
(PID.TID 0000.0001) %MON obc_N_vVel_mean              =   2.4835804078617E-08
(PID.TID 0000.0001) %MON obc_N_vVel_sd                =   6.5267517864505E-15
(PID.TID 0000.0001) %MON obc_N_vVel_Int               =   1.6391630691887E+00
(PID.TID 0000.0001) // =======================================================
(PID.TID 0000.0001) // End OBCS MONITOR field statistics
(PID.TID 0000.0001) // =======================================================
 cg2d: Sum(rhs),rhsMax =   3.00631609720867E+00  4.53039539721789E+02
(PID.TID 0000.0001)      cg2d_init_res =   5.55495020553883E-06
(PID.TID 0000.0001)      cg2d_iters(min,last) =      -1      78
(PID.TID 0000.0001)      cg2d_last_res =   8.99113498358847E-12
(PID.TID 0000.0001) // =======================================================
(PID.TID 0000.0001) // Begin MONITOR dynamic field statistics
(PID.TID 0000.0001) // =======================================================
(PID.TID 0000.0001) %MON time_tsnumber                =                  1425
(PID.TID 0000.0001) %MON time_secondsf                =   1.4250000000000E+05
(PID.TID 0000.0001) %MON dynstat_eta_max              =   5.7994330684673E+00
(PID.TID 0000.0001) %MON dynstat_eta_min              =  -1.4166632217143E+01
(PID.TID 0000.0001) %MON dynstat_eta_mean             =  -2.5221852980326E+00
(PID.TID 0000.0001) %MON dynstat_eta_sd               =   4.9405350688850E+00
(PID.TID 0000.0001) %MON dynstat_eta_del2             =   1.9059339148183E-01
(PID.TID 0000.0001) %MON dynstat_uvel_max             =   1.2010857312472E-02
(PID.TID 0000.0001) %MON dynstat_uvel_min             =  -5.4269666970481E-02
(PID.TID 0000.0001) %MON dynstat_uvel_mean            =   4.9806111373109E-09
(PID.TID 0000.0001) %MON dynstat_uvel_sd              =   1.5709842004746E-03
(PID.TID 0000.0001) %MON dynstat_uvel_del2            =   2.4377987234703E-06
(PID.TID 0000.0001) %MON dynstat_vvel_max             =   3.2635313452731E-02
(PID.TID 0000.0001) %MON dynstat_vvel_min             =  -1.6042521897743E-02
(PID.TID 0000.0001) %MON dynstat_vvel_mean            =   7.5489637994284E-08
(PID.TID 0000.0001) %MON dynstat_vvel_sd              =   6.9367636154956E-04
(PID.TID 0000.0001) %MON dynstat_vvel_del2            =   1.8161016662176E-06
(PID.TID 0000.0001) %MON dynstat_wvel_max             =   2.1069534594130E-03
(PID.TID 0000.0001) %MON dynstat_wvel_min             =  -2.7177273040105E-03
(PID.TID 0000.0001) %MON dynstat_wvel_mean            =   4.8097124891168E-10
(PID.TID 0000.0001) %MON dynstat_wvel_sd              =   3.5271113005163E-05
(PID.TID 0000.0001) %MON dynstat_wvel_del2            =   1.3594725206156E-07
(PID.TID 0000.0001) %MON dynstat_theta_max            =   1.2000000000000E+00
(PID.TID 0000.0001) %MON dynstat_theta_min            =  -1.0000000000000E+00
(PID.TID 0000.0001) %MON dynstat_theta_mean           =   5.6489251250965E-01
(PID.TID 0000.0001) %MON dynstat_theta_sd             =   8.4883255646468E-01
(PID.TID 0000.0001) %MON dynstat_theta_del2           =   5.0160267901382E-06
(PID.TID 0000.0001) %MON dynstat_salt_max             =   3.4700000000000E+01
(PID.TID 0000.0001) %MON dynstat_salt_min             =   3.4000000000000E+01
(PID.TID 0000.0001) %MON dynstat_salt_mean            =   3.4497871097924E+01
(PID.TID 0000.0001) %MON dynstat_salt_sd              =   2.7007232356597E-01
(PID.TID 0000.0001) %MON dynstat_salt_del2            =   1.9870522841800E-06
(PID.TID 0000.0001) %MON advcfl_uvel_max              =   5.4269666970481E-03
(PID.TID 0000.0001) %MON advcfl_vvel_max              =   3.2635313452731E-03
(PID.TID 0000.0001) %MON advcfl_wvel_max              =   1.3588636520053E-02
(PID.TID 0000.0001) %MON advcfl_W_hf_max              =   1.3588636520053E-02
(PID.TID 0000.0001) %MON pe_b_mean                    =  -6.8139890176812E-01
(PID.TID 0000.0001) %MON ke_max                       =   1.3772705955021E-03
(PID.TID 0000.0001) %MON ke_mean                      =   1.4513849481926E-06
(PID.TID 0000.0001) %MON ke_vol                       =   4.6183181599666E+12
(PID.TID 0000.0001) // =======================================================
(PID.TID 0000.0001) // End MONITOR dynamic field statistics
(PID.TID 0000.0001) // =======================================================
(PID.TID 0000.0001) // =======================================================
(PID.TID 0000.0001) // Begin OBCS MONITOR field statistics
(PID.TID 0000.0001) // =======================================================
(PID.TID 0000.0001) %MON obc_N_vVel_max               =   2.6726168755857E-08
(PID.TID 0000.0001) %MON obc_N_vVel_min               =   2.6726168755856E-08
(PID.TID 0000.0001) %MON obc_N_vVel_mean              =   2.6726168755857E-08
(PID.TID 0000.0001) %MON obc_N_vVel_sd                =  -6.6855961717481E-29
(PID.TID 0000.0001) %MON obc_N_vVel_Int               =   1.7639271378866E+00
(PID.TID 0000.0001) // =======================================================
(PID.TID 0000.0001) // End OBCS MONITOR field statistics
(PID.TID 0000.0001) // =======================================================
 cg2d: Sum(rhs),rhsMax =   3.00630430311508E+00  4.53039519291802E+02
(PID.TID 0000.0001)      cg2d_init_res =   5.56368751195864E-06
(PID.TID 0000.0001)      cg2d_iters(min,last) =      -1      78
(PID.TID 0000.0001)      cg2d_last_res =   9.01011252984979E-12
(PID.TID 0000.0001) // =======================================================
(PID.TID 0000.0001) // Begin MONITOR dynamic field statistics
(PID.TID 0000.0001) // =======================================================
(PID.TID 0000.0001) %MON time_tsnumber                =                  1426
(PID.TID 0000.0001) %MON time_secondsf                =   1.4260000000000E+05
(PID.TID 0000.0001) %MON dynstat_eta_max              =   5.7994362422144E+00
(PID.TID 0000.0001) %MON dynstat_eta_min              =  -1.4166609942278E+01
(PID.TID 0000.0001) %MON dynstat_eta_mean             =  -2.5221752894965E+00
(PID.TID 0000.0001) %MON dynstat_eta_sd               =   4.9405321930043E+00
(PID.TID 0000.0001) %MON dynstat_eta_del2             =   1.9059342173493E-01
(PID.TID 0000.0001) %MON dynstat_uvel_max             =   1.2033865052465E-02
(PID.TID 0000.0001) %MON dynstat_uvel_min             =  -5.4376108976935E-02
(PID.TID 0000.0001) %MON dynstat_uvel_mean            =   4.9682382162529E-09
(PID.TID 0000.0001) %MON dynstat_uvel_sd              =   1.5744609204043E-03
(PID.TID 0000.0001) %MON dynstat_uvel_del2            =   2.4434413557596E-06
(PID.TID 0000.0001) %MON dynstat_vvel_max             =   3.2678196378404E-02
(PID.TID 0000.0001) %MON dynstat_vvel_min             =  -1.6084559715093E-02
(PID.TID 0000.0001) %MON dynstat_vvel_mean            =   7.8612627193515E-08
(PID.TID 0000.0001) %MON dynstat_vvel_sd              =   6.9501485175471E-04
(PID.TID 0000.0001) %MON dynstat_vvel_del2            =   1.8192966009990E-06
(PID.TID 0000.0001) %MON dynstat_wvel_max             =   2.1104969548988E-03
(PID.TID 0000.0001) %MON dynstat_wvel_min             =  -2.7218170215688E-03
(PID.TID 0000.0001) %MON dynstat_wvel_mean            =   4.8565600780508E-10
(PID.TID 0000.0001) %MON dynstat_wvel_sd              =   3.5334339901135E-05
(PID.TID 0000.0001) %MON dynstat_wvel_del2            =   1.3614267344054E-07
(PID.TID 0000.0001) %MON dynstat_theta_max            =   1.2000000000000E+00
(PID.TID 0000.0001) %MON dynstat_theta_min            =  -1.0000000000000E+00
(PID.TID 0000.0001) %MON dynstat_theta_mean           =   5.6489139892728E-01
(PID.TID 0000.0001) %MON dynstat_theta_sd             =   8.4883205714821E-01
(PID.TID 0000.0001) %MON dynstat_theta_del2           =   5.0247018535882E-06
(PID.TID 0000.0001) %MON dynstat_salt_max             =   3.4700000000000E+01
(PID.TID 0000.0001) %MON dynstat_salt_min             =   3.4000000000000E+01
(PID.TID 0000.0001) %MON dynstat_salt_mean            =   3.4497870652742E+01
(PID.TID 0000.0001) %MON dynstat_salt_sd              =   2.7007213575647E-01
(PID.TID 0000.0001) %MON dynstat_salt_del2            =   1.9905028541456E-06
(PID.TID 0000.0001) %MON advcfl_uvel_max              =   5.4376108976935E-03
(PID.TID 0000.0001) %MON advcfl_vvel_max              =   3.2678196378404E-03
(PID.TID 0000.0001) %MON advcfl_wvel_max              =   1.3609085107844E-02
(PID.TID 0000.0001) %MON advcfl_W_hf_max              =   1.3609085107844E-02
(PID.TID 0000.0001) %MON pe_b_mean                    =  -6.8139589146124E-01
(PID.TID 0000.0001) %MON ke_max                       =   1.3832879151022E-03
(PID.TID 0000.0001) %MON ke_mean                      =   1.4576794246920E-06
(PID.TID 0000.0001) %MON ke_vol                       =   4.6183182193297E+12
(PID.TID 0000.0001) // =======================================================
(PID.TID 0000.0001) // End MONITOR dynamic field statistics
(PID.TID 0000.0001) // =======================================================
(PID.TID 0000.0001) // =======================================================
(PID.TID 0000.0001) // Begin OBCS MONITOR field statistics
(PID.TID 0000.0001) // =======================================================
(PID.TID 0000.0001) %MON obc_N_vVel_max               =   2.9234547062666E-08
(PID.TID 0000.0001) %MON obc_N_vVel_min               =   2.9234547062665E-08
(PID.TID 0000.0001) %MON obc_N_vVel_mean              =   2.9234547062666E-08
(PID.TID 0000.0001) %MON obc_N_vVel_sd                =  -7.1983557601417E-29
(PID.TID 0000.0001) %MON obc_N_vVel_Int               =   1.9294801061360E+00
(PID.TID 0000.0001) // =======================================================
(PID.TID 0000.0001) // End OBCS MONITOR field statistics
(PID.TID 0000.0001) // =======================================================
 cg2d: Sum(rhs),rhsMax =   3.00629249128802E+00  4.53039498992295E+02
(PID.TID 0000.0001)      cg2d_init_res =   5.57244684631893E-06
(PID.TID 0000.0001)      cg2d_iters(min,last) =      -1      78
(PID.TID 0000.0001)      cg2d_last_res =   9.02898298574615E-12
(PID.TID 0000.0001) // =======================================================
(PID.TID 0000.0001) // Begin MONITOR dynamic field statistics
(PID.TID 0000.0001) // =======================================================
(PID.TID 0000.0001) %MON time_tsnumber                =                  1427
(PID.TID 0000.0001) %MON time_secondsf                =   1.4270000000000E+05
(PID.TID 0000.0001) %MON dynstat_eta_max              =   5.7994394143107E+00
(PID.TID 0000.0001) %MON dynstat_eta_min              =  -1.4166587624686E+01
(PID.TID 0000.0001) %MON dynstat_eta_mean             =  -2.5221652668100E+00
(PID.TID 0000.0001) %MON dynstat_eta_sd               =   4.9405293136289E+00
(PID.TID 0000.0001) %MON dynstat_eta_del2             =   1.9059345204296E-01
(PID.TID 0000.0001) %MON dynstat_uvel_max             =   1.2056874524895E-02
(PID.TID 0000.0001) %MON dynstat_uvel_min             =  -5.4482685728932E-02
(PID.TID 0000.0001) %MON dynstat_uvel_mean            =   4.9584554853356E-09
(PID.TID 0000.0001) %MON dynstat_uvel_sd              =   1.5779435519673E-03
(PID.TID 0000.0001) %MON dynstat_uvel_del2            =   2.4490953758984E-06
(PID.TID 0000.0001) %MON dynstat_vvel_max             =   3.2721084182701E-02
(PID.TID 0000.0001) %MON dynstat_vvel_min             =  -1.6126668239302E-02
(PID.TID 0000.0001) %MON dynstat_vvel_mean            =   8.2285416675733E-08
(PID.TID 0000.0001) %MON dynstat_vvel_sd              =   6.9635550060119E-04
(PID.TID 0000.0001) %MON dynstat_vvel_del2            =   1.8224952183638E-06
(PID.TID 0000.0001) %MON dynstat_wvel_max             =   2.1140420337561E-03
(PID.TID 0000.0001) %MON dynstat_wvel_min             =  -2.7258933286021E-03
(PID.TID 0000.0001) %MON dynstat_wvel_mean            =   4.8979123615784E-10
(PID.TID 0000.0001) %MON dynstat_wvel_sd              =   3.5397811376682E-05
(PID.TID 0000.0001) %MON dynstat_wvel_del2            =   1.3633909864487E-07
(PID.TID 0000.0001) %MON dynstat_theta_max            =   1.2000000000000E+00
(PID.TID 0000.0001) %MON dynstat_theta_min            =  -1.0000000000000E+00
(PID.TID 0000.0001) %MON dynstat_theta_mean           =   5.6489028342736E-01
(PID.TID 0000.0001) %MON dynstat_theta_sd             =   8.4883155704213E-01
(PID.TID 0000.0001) %MON dynstat_theta_del2           =   5.0333833740122E-06
(PID.TID 0000.0001) %MON dynstat_salt_max             =   3.4700000000000E+01
(PID.TID 0000.0001) %MON dynstat_salt_min             =   3.4000000000000E+01
(PID.TID 0000.0001) %MON dynstat_salt_mean            =   3.4497870206790E+01
(PID.TID 0000.0001) %MON dynstat_salt_sd              =   2.7007194766034E-01
(PID.TID 0000.0001) %MON dynstat_salt_del2            =   1.9939546616151E-06
(PID.TID 0000.0001) %MON advcfl_uvel_max              =   5.4482685728932E-03
(PID.TID 0000.0001) %MON advcfl_vvel_max              =   3.2721084182701E-03
(PID.TID 0000.0001) %MON advcfl_wvel_max              =   1.3629466643010E-02
(PID.TID 0000.0001) %MON advcfl_W_hf_max              =   1.3629466643010E-02
(PID.TID 0000.0001) %MON pe_b_mean                    =  -6.8139287662986E-01
(PID.TID 0000.0001) %MON ke_max                       =   1.3893267479930E-03
(PID.TID 0000.0001) %MON ke_mean                      =   1.4639982090971E-06
(PID.TID 0000.0001) %MON ke_vol                       =   4.6183182787804E+12
(PID.TID 0000.0001) // =======================================================
(PID.TID 0000.0001) // End MONITOR dynamic field statistics
(PID.TID 0000.0001) // =======================================================
(PID.TID 0000.0001) // =======================================================
(PID.TID 0000.0001) // Begin OBCS MONITOR field statistics
(PID.TID 0000.0001) // =======================================================
(PID.TID 0000.0001) %MON obc_N_vVel_max               =   3.2307882843451E-08
(PID.TID 0000.0001) %MON obc_N_vVel_min               =   3.2307882843450E-08
(PID.TID 0000.0001) %MON obc_N_vVel_mean              =   3.2307882843451E-08
(PID.TID 0000.0001) %MON obc_N_vVel_sd                =   1.4728772825181E-15
(PID.TID 0000.0001) %MON obc_N_vVel_Int               =   2.1323202676678E+00
(PID.TID 0000.0001) // =======================================================
(PID.TID 0000.0001) // End OBCS MONITOR field statistics
(PID.TID 0000.0001) // =======================================================
 cg2d: Sum(rhs),rhsMax =   3.00628066239308E+00  4.53039478818302E+02
(PID.TID 0000.0001)      cg2d_init_res =   5.58111991201508E-06
(PID.TID 0000.0001)      cg2d_iters(min,last) =      -1      78
(PID.TID 0000.0001)      cg2d_last_res =   9.04796531696446E-12
(PID.TID 0000.0001) // =======================================================
(PID.TID 0000.0001) // Begin MONITOR dynamic field statistics
(PID.TID 0000.0001) // =======================================================
(PID.TID 0000.0001) %MON time_tsnumber                =                  1428
(PID.TID 0000.0001) %MON time_secondsf                =   1.4280000000000E+05
(PID.TID 0000.0001) %MON dynstat_eta_max              =   5.7994425839723E+00
(PID.TID 0000.0001) %MON dynstat_eta_min              =  -1.4166565265178E+01
(PID.TID 0000.0001) %MON dynstat_eta_mean             =  -2.5221552305039E+00
(PID.TID 0000.0001) %MON dynstat_eta_sd               =   4.9405264308603E+00
(PID.TID 0000.0001) %MON dynstat_eta_del2             =   1.9059348240524E-01
(PID.TID 0000.0001) %MON dynstat_uvel_max             =   1.2079885410166E-02
(PID.TID 0000.0001) %MON dynstat_uvel_min             =  -5.4597669551018E-02
(PID.TID 0000.0001) %MON dynstat_uvel_mean            =   4.9517004982949E-09
(PID.TID 0000.0001) %MON dynstat_uvel_sd              =   1.5814320973018E-03
(PID.TID 0000.0001) %MON dynstat_uvel_del2            =   2.4547607775286E-06
(PID.TID 0000.0001) %MON dynstat_vvel_max             =   3.2763976805517E-02
(PID.TID 0000.0001) %MON dynstat_vvel_min             =  -1.6168847359591E-02
(PID.TID 0000.0001) %MON dynstat_vvel_mean            =   8.6433426794777E-08
(PID.TID 0000.0001) %MON dynstat_vvel_sd              =   6.9769831875307E-04
(PID.TID 0000.0001) %MON dynstat_vvel_del2            =   1.8256974651278E-06
(PID.TID 0000.0001) %MON dynstat_wvel_max             =   2.1175886813256E-03
(PID.TID 0000.0001) %MON dynstat_wvel_min             =  -2.7299560676646E-03
(PID.TID 0000.0001) %MON dynstat_wvel_mean            =   4.9331486937598E-10
(PID.TID 0000.0001) %MON dynstat_wvel_sd              =   3.5461518795246E-05
(PID.TID 0000.0001) %MON dynstat_wvel_del2            =   1.3653631603118E-07
(PID.TID 0000.0001) %MON dynstat_theta_max            =   1.2000000000000E+00
(PID.TID 0000.0001) %MON dynstat_theta_min            =  -1.0000000000000E+00
(PID.TID 0000.0001) %MON dynstat_theta_mean           =   5.6488916600740E-01
(PID.TID 0000.0001) %MON dynstat_theta_sd             =   8.4883105614335E-01
(PID.TID 0000.0001) %MON dynstat_theta_del2           =   5.0420663525450E-06
(PID.TID 0000.0001) %MON dynstat_salt_max             =   3.4700000000000E+01
(PID.TID 0000.0001) %MON dynstat_salt_min             =   3.4000000000000E+01
(PID.TID 0000.0001) %MON dynstat_salt_mean            =   3.4497869760067E+01
(PID.TID 0000.0001) %MON dynstat_salt_sd              =   2.7007175927726E-01
(PID.TID 0000.0001) %MON dynstat_salt_del2            =   1.9974073584258E-06
(PID.TID 0000.0001) %MON advcfl_uvel_max              =   5.4597669551018E-03
(PID.TID 0000.0001) %MON advcfl_vvel_max              =   3.2763976805517E-03
(PID.TID 0000.0001) %MON advcfl_wvel_max              =   1.3649780338323E-02
(PID.TID 0000.0001) %MON advcfl_W_hf_max              =   1.3649780338323E-02
(PID.TID 0000.0001) %MON pe_b_mean                    =  -6.8138985736356E-01
(PID.TID 0000.0001) %MON ke_max                       =   1.3953871427409E-03
(PID.TID 0000.0001) %MON ke_mean                      =   1.4703413814501E-06
(PID.TID 0000.0001) %MON ke_vol                       =   4.6183183383151E+12
(PID.TID 0000.0001) // =======================================================
(PID.TID 0000.0001) // End MONITOR dynamic field statistics
(PID.TID 0000.0001) // =======================================================
(PID.TID 0000.0001) // =======================================================
(PID.TID 0000.0001) // Begin OBCS MONITOR field statistics
(PID.TID 0000.0001) // =======================================================
(PID.TID 0000.0001) %MON obc_N_vVel_max               =   3.5882018758696E-08
(PID.TID 0000.0001) %MON obc_N_vVel_min               =   3.5882018758696E-08
(PID.TID 0000.0001) %MON obc_N_vVel_mean              =   3.5882018758696E-08
(PID.TID 0000.0001) %MON obc_N_vVel_sd                =   9.9301366129891E-16
(PID.TID 0000.0001) %MON obc_N_vVel_Int               =   2.3682132380740E+00
(PID.TID 0000.0001) // =======================================================
(PID.TID 0000.0001) // End OBCS MONITOR field statistics
(PID.TID 0000.0001) // =======================================================
 cg2d: Sum(rhs),rhsMax =   3.00626881701721E+00  4.53039458762076E+02
(PID.TID 0000.0001)      cg2d_init_res =   5.58978376298386E-06
(PID.TID 0000.0001)      cg2d_iters(min,last) =      -1      78
(PID.TID 0000.0001)      cg2d_last_res =   9.06654721796540E-12
(PID.TID 0000.0001) // =======================================================
(PID.TID 0000.0001) // Begin MONITOR dynamic field statistics
(PID.TID 0000.0001) // =======================================================
(PID.TID 0000.0001) %MON time_tsnumber                =                  1429
(PID.TID 0000.0001) %MON time_secondsf                =   1.4290000000000E+05
(PID.TID 0000.0001) %MON dynstat_eta_max              =   5.7994457505516E+00
(PID.TID 0000.0001) %MON dynstat_eta_min              =  -1.4166542864398E+01
(PID.TID 0000.0001) %MON dynstat_eta_mean             =  -2.5221451810274E+00
(PID.TID 0000.0001) %MON dynstat_eta_sd               =   4.9405235447784E+00
(PID.TID 0000.0001) %MON dynstat_eta_del2             =   1.9059351282214E-01
(PID.TID 0000.0001) %MON dynstat_uvel_max             =   1.2102897382079E-02
(PID.TID 0000.0001) %MON dynstat_uvel_min             =  -5.4720724944954E-02
(PID.TID 0000.0001) %MON dynstat_uvel_mean            =   4.9484138070460E-09
(PID.TID 0000.0001) %MON dynstat_uvel_sd              =   1.5849265583502E-03
(PID.TID 0000.0001) %MON dynstat_uvel_del2            =   2.4604375560669E-06
(PID.TID 0000.0001) %MON dynstat_vvel_max             =   3.2806874175976E-02
(PID.TID 0000.0001) %MON dynstat_vvel_min             =  -1.6211096953290E-02
(PID.TID 0000.0001) %MON dynstat_vvel_mean            =   9.0972979217589E-08
(PID.TID 0000.0001) %MON dynstat_vvel_sd              =   6.9904331326168E-04
(PID.TID 0000.0001) %MON dynstat_vvel_del2            =   1.8289032688609E-06
(PID.TID 0000.0001) %MON dynstat_wvel_max             =   2.1211368813654E-03
(PID.TID 0000.0001) %MON dynstat_wvel_min             =  -2.7340050807720E-03
(PID.TID 0000.0001) %MON dynstat_wvel_mean            =   4.9617338721378E-10
(PID.TID 0000.0001) %MON dynstat_wvel_sd              =   3.5525441277702E-05
(PID.TID 0000.0001) %MON dynstat_wvel_del2            =   1.3673403596043E-07
(PID.TID 0000.0001) %MON dynstat_theta_max            =   1.2000000000000E+00
(PID.TID 0000.0001) %MON dynstat_theta_min            =  -1.0000000000000E+00
(PID.TID 0000.0001) %MON dynstat_theta_mean           =   5.6488804666484E-01
(PID.TID 0000.0001) %MON dynstat_theta_sd             =   8.4883055445311E-01
(PID.TID 0000.0001) %MON dynstat_theta_del2           =   5.0507584657739E-06
(PID.TID 0000.0001) %MON dynstat_salt_max             =   3.4700000000000E+01
(PID.TID 0000.0001) %MON dynstat_salt_min             =   3.4000000000000E+01
(PID.TID 0000.0001) %MON dynstat_salt_mean            =   3.4497869312572E+01
(PID.TID 0000.0001) %MON dynstat_salt_sd              =   2.7007157060791E-01
(PID.TID 0000.0001) %MON dynstat_salt_del2            =   2.0008637870708E-06
(PID.TID 0000.0001) %MON advcfl_uvel_max              =   5.4720724944954E-03
(PID.TID 0000.0001) %MON advcfl_vvel_max              =   3.2806874175976E-03
(PID.TID 0000.0001) %MON advcfl_wvel_max              =   1.3670025403860E-02
(PID.TID 0000.0001) %MON advcfl_W_hf_max              =   1.3670025403860E-02
(PID.TID 0000.0001) %MON pe_b_mean                    =  -6.8138683373360E-01
(PID.TID 0000.0001) %MON ke_max                       =   1.4014691462445E-03
(PID.TID 0000.0001) %MON ke_mean                      =   1.4767090191656E-06
(PID.TID 0000.0001) %MON ke_vol                       =   4.6183183979308E+12
(PID.TID 0000.0001) // =======================================================
(PID.TID 0000.0001) // End MONITOR dynamic field statistics
(PID.TID 0000.0001) // =======================================================
(PID.TID 0000.0001) // =======================================================
(PID.TID 0000.0001) // Begin OBCS MONITOR field statistics
(PID.TID 0000.0001) // =======================================================
(PID.TID 0000.0001) %MON obc_N_vVel_max               =   3.9883126268613E-08
(PID.TID 0000.0001) %MON obc_N_vVel_min               =   3.9883126268612E-08
(PID.TID 0000.0001) %MON obc_N_vVel_mean              =   3.9883126268613E-08
(PID.TID 0000.0001) %MON obc_N_vVel_sd                =  -6.1925581059849E-29
(PID.TID 0000.0001) %MON obc_N_vVel_Int               =   2.6322863337285E+00
(PID.TID 0000.0001) // =======================================================
(PID.TID 0000.0001) // End OBCS MONITOR field statistics
(PID.TID 0000.0001) // =======================================================
 cg2d: Sum(rhs),rhsMax =   3.00625695565654E+00  4.53039438813262E+02
(PID.TID 0000.0001)      cg2d_init_res =   5.59864277123277E-06
(PID.TID 0000.0001)      cg2d_iters(min,last) =      -1      78
(PID.TID 0000.0001)      cg2d_last_res =   9.08517694299790E-12
(PID.TID 0000.0001) // =======================================================
(PID.TID 0000.0001) // Begin MONITOR dynamic field statistics
(PID.TID 0000.0001) // =======================================================
(PID.TID 0000.0001) %MON time_tsnumber                =                  1430
(PID.TID 0000.0001) %MON time_secondsf                =   1.4300000000000E+05
(PID.TID 0000.0001) %MON dynstat_eta_max              =   5.7994489135629E+00
(PID.TID 0000.0001) %MON dynstat_eta_min              =  -1.4166520422798E+01
(PID.TID 0000.0001) %MON dynstat_eta_mean             =  -2.5221351187391E+00
(PID.TID 0000.0001) %MON dynstat_eta_sd               =   4.9405206554350E+00
(PID.TID 0000.0001) %MON dynstat_eta_del2             =   1.9059354329448E-01
(PID.TID 0000.0001) %MON dynstat_uvel_max             =   1.2125910112426E-02
(PID.TID 0000.0001) %MON dynstat_uvel_min             =  -5.4843879158629E-02
(PID.TID 0000.0001) %MON dynstat_uvel_mean            =   4.9489942023393E-09
(PID.TID 0000.0001) %MON dynstat_uvel_sd              =   1.5884269359652E-03
(PID.TID 0000.0001) %MON dynstat_uvel_del2            =   2.4661257262471E-06
(PID.TID 0000.0001) %MON dynstat_vvel_max             =   3.2849776230283E-02
(PID.TID 0000.0001) %MON dynstat_vvel_min             =  -1.6253416883874E-02
(PID.TID 0000.0001) %MON dynstat_vvel_mean            =   9.5813093455216E-08
(PID.TID 0000.0001) %MON dynstat_vvel_sd              =   7.0039048630697E-04
(PID.TID 0000.0001) %MON dynstat_vvel_del2            =   1.8321125374997E-06
(PID.TID 0000.0001) %MON dynstat_wvel_max             =   2.1246866190557E-03
(PID.TID 0000.0001) %MON dynstat_wvel_min             =  -2.7380402105564E-03
(PID.TID 0000.0001) %MON dynstat_wvel_mean            =   4.9832620271468E-10
(PID.TID 0000.0001) %MON dynstat_wvel_sd              =   3.5589549329681E-05
(PID.TID 0000.0001) %MON dynstat_wvel_del2            =   1.3693192360439E-07
(PID.TID 0000.0001) %MON dynstat_theta_max            =   1.2000000000000E+00
(PID.TID 0000.0001) %MON dynstat_theta_min            =  -1.0000000000000E+00
(PID.TID 0000.0001) %MON dynstat_theta_mean           =   5.6488692539705E-01
(PID.TID 0000.0001) %MON dynstat_theta_sd             =   8.4883005196995E-01
(PID.TID 0000.0001) %MON dynstat_theta_del2           =   5.0594597485200E-06
(PID.TID 0000.0001) %MON dynstat_salt_max             =   3.4700000000000E+01
(PID.TID 0000.0001) %MON dynstat_salt_min             =   3.4000000000000E+01
(PID.TID 0000.0001) %MON dynstat_salt_mean            =   3.4497868864304E+01
(PID.TID 0000.0001) %MON dynstat_salt_sd              =   2.7007138165184E-01
(PID.TID 0000.0001) %MON dynstat_salt_del2            =   2.0043239498580E-06
(PID.TID 0000.0001) %MON advcfl_uvel_max              =   5.4843879158629E-03
(PID.TID 0000.0001) %MON advcfl_vvel_max              =   3.2849776230283E-03
(PID.TID 0000.0001) %MON advcfl_wvel_max              =   1.3690201052782E-02
(PID.TID 0000.0001) %MON advcfl_W_hf_max              =   1.3690201052782E-02
(PID.TID 0000.0001) %MON pe_b_mean                    =  -6.8138380579141E-01
(PID.TID 0000.0001) %MON ke_max                       =   1.4075728059193E-03
(PID.TID 0000.0001) %MON ke_mean                      =   1.4831011947286E-06
(PID.TID 0000.0001) %MON ke_vol                       =   4.6183184576247E+12
(PID.TID 0000.0001) // =======================================================
(PID.TID 0000.0001) // End MONITOR dynamic field statistics
(PID.TID 0000.0001) // =======================================================
(PID.TID 0000.0001) // =======================================================
(PID.TID 0000.0001) // Begin OBCS MONITOR field statistics
(PID.TID 0000.0001) // =======================================================
(PID.TID 0000.0001) %MON obc_N_vVel_max               =   4.4229329539979E-08
(PID.TID 0000.0001) %MON obc_N_vVel_min               =   4.4229329539978E-08
(PID.TID 0000.0001) %MON obc_N_vVel_mean              =   4.4229329539979E-08
(PID.TID 0000.0001) %MON obc_N_vVel_sd                =  -5.8375706986355E-29
(PID.TID 0000.0001) %MON obc_N_vVel_Int               =   2.9191357496386E+00
(PID.TID 0000.0001) // =======================================================
(PID.TID 0000.0001) // End OBCS MONITOR field statistics
(PID.TID 0000.0001) // =======================================================
 cg2d: Sum(rhs),rhsMax =   3.00624507870682E+00  4.53039418959029E+02
(PID.TID 0000.0001)      cg2d_init_res =   5.60753073326376E-06
(PID.TID 0000.0001)      cg2d_iters(min,last) =      -1      78
(PID.TID 0000.0001)      cg2d_last_res =   9.10375971363120E-12
(PID.TID 0000.0001) // =======================================================
(PID.TID 0000.0001) // Begin MONITOR dynamic field statistics
(PID.TID 0000.0001) // =======================================================
(PID.TID 0000.0001) %MON time_tsnumber                =                  1431
(PID.TID 0000.0001) %MON time_secondsf                =   1.4310000000000E+05
(PID.TID 0000.0001) %MON dynstat_eta_max              =   5.7994520726876E+00
(PID.TID 0000.0001) %MON dynstat_eta_min              =  -1.4166497940627E+01
(PID.TID 0000.0001) %MON dynstat_eta_mean             =  -2.5221250438996E+00
(PID.TID 0000.0001) %MON dynstat_eta_sd               =   4.9405177628346E+00
(PID.TID 0000.0001) %MON dynstat_eta_del2             =   1.9059357382223E-01
(PID.TID 0000.0001) %MON dynstat_uvel_max             =   1.2148923272169E-02
(PID.TID 0000.0001) %MON dynstat_uvel_min             =  -5.4967131825123E-02
(PID.TID 0000.0001) %MON dynstat_uvel_mean            =   4.9536977777835E-09
(PID.TID 0000.0001) %MON dynstat_uvel_sd              =   1.5919332309125E-03
(PID.TID 0000.0001) %MON dynstat_uvel_del2            =   2.4718253028831E-06
(PID.TID 0000.0001) %MON dynstat_vvel_max             =   3.2892682903337E-02
(PID.TID 0000.0001) %MON dynstat_vvel_min             =  -1.6295807013066E-02
(PID.TID 0000.0001) %MON dynstat_vvel_mean            =   1.0085752290821E-07
(PID.TID 0000.0001) %MON dynstat_vvel_sd              =   7.0173983789398E-04
(PID.TID 0000.0001) %MON dynstat_vvel_del2            =   1.8353251799376E-06
(PID.TID 0000.0001) %MON dynstat_wvel_max             =   2.1282378794737E-03
(PID.TID 0000.0001) %MON dynstat_wvel_min             =  -2.7420612994557E-03
(PID.TID 0000.0001) %MON dynstat_wvel_mean            =   4.9975125205448E-10
(PID.TID 0000.0001) %MON dynstat_wvel_sd              =   3.5653809290753E-05
(PID.TID 0000.0001) %MON dynstat_wvel_del2            =   1.3712964011145E-07
(PID.TID 0000.0001) %MON dynstat_theta_max            =   1.2000000000000E+00
(PID.TID 0000.0001) %MON dynstat_theta_min            =  -1.0000000000000E+00
(PID.TID 0000.0001) %MON dynstat_theta_mean           =   5.6488580220129E-01
(PID.TID 0000.0001) %MON dynstat_theta_sd             =   8.4882954869247E-01
(PID.TID 0000.0001) %MON dynstat_theta_del2           =   5.0681698998445E-06
(PID.TID 0000.0001) %MON dynstat_salt_max             =   3.4700000000000E+01
(PID.TID 0000.0001) %MON dynstat_salt_min             =   3.4000000000000E+01
(PID.TID 0000.0001) %MON dynstat_salt_mean            =   3.4497868415262E+01
(PID.TID 0000.0001) %MON dynstat_salt_sd              =   2.7007119240867E-01
(PID.TID 0000.0001) %MON dynstat_salt_del2            =   2.0077878646782E-06
(PID.TID 0000.0001) %MON advcfl_uvel_max              =   5.4967131825123E-03
(PID.TID 0000.0001) %MON advcfl_vvel_max              =   3.2892682903337E-03
(PID.TID 0000.0001) %MON advcfl_wvel_max              =   1.3710306497278E-02
(PID.TID 0000.0001) %MON advcfl_W_hf_max              =   1.3710306497278E-02
(PID.TID 0000.0001) %MON pe_b_mean                    =  -6.8138077356759E-01
(PID.TID 0000.0001) %MON ke_max                       =   1.4136981703319E-03
(PID.TID 0000.0001) %MON ke_mean                      =   1.4895179790999E-06
(PID.TID 0000.0001) %MON ke_vol                       =   4.6183185173947E+12
(PID.TID 0000.0001) // =======================================================
(PID.TID 0000.0001) // End MONITOR dynamic field statistics
(PID.TID 0000.0001) // =======================================================
(PID.TID 0000.0001) // =======================================================
(PID.TID 0000.0001) // Begin OBCS MONITOR field statistics
(PID.TID 0000.0001) // =======================================================
(PID.TID 0000.0001) %MON obc_N_vVel_max               =   4.8832466435406E-08
(PID.TID 0000.0001) %MON obc_N_vVel_min               =   4.8832466435404E-08
(PID.TID 0000.0001) %MON obc_N_vVel_mean              =   4.8832466435404E-08
(PID.TID 0000.0001) %MON obc_N_vVel_sd                =   1.1146550702900E-14
(PID.TID 0000.0001) %MON obc_N_vVel_Int               =   3.2229427847366E+00
(PID.TID 0000.0001) // =======================================================
(PID.TID 0000.0001) // End OBCS MONITOR field statistics
(PID.TID 0000.0001) // =======================================================
 cg2d: Sum(rhs),rhsMax =   3.00623318645362E+00  4.53039399184643E+02
(PID.TID 0000.0001)      cg2d_init_res =   5.61645421649823E-06
(PID.TID 0000.0001)      cg2d_iters(min,last) =      -1      78
(PID.TID 0000.0001)      cg2d_last_res =   9.12231917136725E-12
(PID.TID 0000.0001) // =======================================================
(PID.TID 0000.0001) // Begin MONITOR dynamic field statistics
(PID.TID 0000.0001) // =======================================================
(PID.TID 0000.0001) %MON time_tsnumber                =                  1432
(PID.TID 0000.0001) %MON time_secondsf                =   1.4320000000000E+05
(PID.TID 0000.0001) %MON dynstat_eta_max              =   5.7994552277780E+00
(PID.TID 0000.0001) %MON dynstat_eta_min              =  -1.4166475417933E+01
(PID.TID 0000.0001) %MON dynstat_eta_mean             =  -2.5221149566665E+00
(PID.TID 0000.0001) %MON dynstat_eta_sd               =   4.9405148669460E+00
(PID.TID 0000.0001) %MON dynstat_eta_del2             =   1.9059360440537E-01
(PID.TID 0000.0001) %MON dynstat_uvel_max             =   1.2171936526809E-02
(PID.TID 0000.0001) %MON dynstat_uvel_min             =  -5.5090482625864E-02
(PID.TID 0000.0001) %MON dynstat_uvel_mean            =   4.9626727857612E-09
(PID.TID 0000.0001) %MON dynstat_uvel_sd              =   1.5954454439093E-03
(PID.TID 0000.0001) %MON dynstat_uvel_del2            =   2.4775363006274E-06
(PID.TID 0000.0001) %MON dynstat_vvel_max             =   3.2935594128848E-02
(PID.TID 0000.0001) %MON dynstat_vvel_min             =  -1.6338267196069E-02
(PID.TID 0000.0001) %MON dynstat_vvel_mean            =   1.0600679526196E-07
(PID.TID 0000.0001) %MON dynstat_vvel_sd              =   7.0309136624749E-04
(PID.TID 0000.0001) %MON dynstat_vvel_del2            =   1.8385411133407E-06
(PID.TID 0000.0001) %MON dynstat_wvel_max             =   2.1317906476072E-03
(PID.TID 0000.0001) %MON dynstat_wvel_min             =  -2.7460681891278E-03
(PID.TID 0000.0001) %MON dynstat_wvel_mean            =   5.0044153881438E-10
(PID.TID 0000.0001) %MON dynstat_wvel_sd              =   3.5718187085584E-05
(PID.TID 0000.0001) %MON dynstat_wvel_del2            =   1.3732687341056E-07
(PID.TID 0000.0001) %MON dynstat_theta_max            =   1.2000000000000E+00
(PID.TID 0000.0001) %MON dynstat_theta_min            =  -1.0000000000000E+00
(PID.TID 0000.0001) %MON dynstat_theta_mean           =   5.6488467707467E-01
(PID.TID 0000.0001) %MON dynstat_theta_sd             =   8.4882904462087E-01
(PID.TID 0000.0001) %MON dynstat_theta_del2           =   5.0768884578754E-06
(PID.TID 0000.0001) %MON dynstat_salt_max             =   3.4700000000000E+01
(PID.TID 0000.0001) %MON dynstat_salt_min             =   3.4000000000000E+01
(PID.TID 0000.0001) %MON dynstat_salt_mean            =   3.4497867965444E+01
(PID.TID 0000.0001) %MON dynstat_salt_sd              =   2.7007100287870E-01
(PID.TID 0000.0001) %MON dynstat_salt_del2            =   2.0112555504795E-06
(PID.TID 0000.0001) %MON advcfl_uvel_max              =   5.5090482625864E-03
(PID.TID 0000.0001) %MON advcfl_vvel_max              =   3.2935594128848E-03
(PID.TID 0000.0001) %MON advcfl_wvel_max              =   1.3730340945639E-02
(PID.TID 0000.0001) %MON advcfl_W_hf_max              =   1.3730340945639E-02
(PID.TID 0000.0001) %MON pe_b_mean                    =  -6.8137773707135E-01
(PID.TID 0000.0001) %MON ke_max                       =   1.4198452875538E-03
(PID.TID 0000.0001) %MON ke_mean                      =   1.4959594420394E-06
(PID.TID 0000.0001) %MON ke_vol                       =   4.6183185772392E+12
(PID.TID 0000.0001) // =======================================================
(PID.TID 0000.0001) // End MONITOR dynamic field statistics
(PID.TID 0000.0001) // =======================================================
(PID.TID 0000.0001) // =======================================================
(PID.TID 0000.0001) // Begin OBCS MONITOR field statistics
(PID.TID 0000.0001) // =======================================================
(PID.TID 0000.0001) %MON obc_N_vVel_max               =   5.3599987483566E-08
(PID.TID 0000.0001) %MON obc_N_vVel_min               =   5.3599987483565E-08
(PID.TID 0000.0001) %MON obc_N_vVel_mean              =   5.3599987483566E-08
(PID.TID 0000.0001) %MON obc_N_vVel_sd                =  -1.4948914153938E-28
(PID.TID 0000.0001) %MON obc_N_vVel_Int               =   3.5375991739153E+00
(PID.TID 0000.0001) // =======================================================
(PID.TID 0000.0001) // End OBCS MONITOR field statistics
(PID.TID 0000.0001) // =======================================================
 cg2d: Sum(rhs),rhsMax =   3.00622127907096E+00  4.53039379473050E+02
(PID.TID 0000.0001)      cg2d_init_res =   5.62541378063912E-06
(PID.TID 0000.0001)      cg2d_iters(min,last) =      -1      78
(PID.TID 0000.0001)      cg2d_last_res =   9.14087575499914E-12
(PID.TID 0000.0001) // =======================================================
(PID.TID 0000.0001) // Begin MONITOR dynamic field statistics
(PID.TID 0000.0001) // =======================================================
(PID.TID 0000.0001) %MON time_tsnumber                =                  1433
(PID.TID 0000.0001) %MON time_secondsf                =   1.4330000000000E+05
(PID.TID 0000.0001) %MON dynstat_eta_max              =   5.7994583788447E+00
(PID.TID 0000.0001) %MON dynstat_eta_min              =  -1.4166452854556E+01
(PID.TID 0000.0001) %MON dynstat_eta_mean             =  -2.5221048570907E+00
(PID.TID 0000.0001) %MON dynstat_eta_sd               =   4.9405119677026E+00
(PID.TID 0000.0001) %MON dynstat_eta_del2             =   1.9059363504384E-01
(PID.TID 0000.0001) %MON dynstat_uvel_max             =   1.2194949540003E-02
(PID.TID 0000.0001) %MON dynstat_uvel_min             =  -5.5213931242477E-02
(PID.TID 0000.0001) %MON dynstat_uvel_mean            =   4.9759878918132E-09
(PID.TID 0000.0001) %MON dynstat_uvel_sd              =   1.5989635756246E-03
(PID.TID 0000.0001) %MON dynstat_uvel_del2            =   2.4832587340958E-06
(PID.TID 0000.0001) %MON dynstat_vvel_max             =   3.2978509839580E-02
(PID.TID 0000.0001) %MON dynstat_vvel_min             =  -1.6380797278742E-02
(PID.TID 0000.0001) %MON dynstat_vvel_mean            =   1.1116030181459E-07
(PID.TID 0000.0001) %MON dynstat_vvel_sd              =   7.0444506828870E-04
(PID.TID 0000.0001) %MON dynstat_vvel_del2            =   1.8417602696402E-06
(PID.TID 0000.0001) %MON dynstat_wvel_max             =   2.1353449083360E-03
(PID.TID 0000.0001) %MON dynstat_wvel_min             =  -2.7500607214372E-03
(PID.TID 0000.0001) %MON dynstat_wvel_mean            =   5.0040488064152E-10
(PID.TID 0000.0001) %MON dynstat_wvel_sd              =   3.5782651869378E-05
(PID.TID 0000.0001) %MON dynstat_wvel_del2            =   1.3752336945324E-07
(PID.TID 0000.0001) %MON dynstat_theta_max            =   1.2000000000000E+00
(PID.TID 0000.0001) %MON dynstat_theta_min            =  -1.0000000000000E+00
(PID.TID 0000.0001) %MON dynstat_theta_mean           =   5.6488355001411E-01
(PID.TID 0000.0001) %MON dynstat_theta_sd             =   8.4882853975586E-01
(PID.TID 0000.0001) %MON dynstat_theta_del2           =   5.0856163784943E-06
(PID.TID 0000.0001) %MON dynstat_salt_max             =   3.4700000000000E+01
(PID.TID 0000.0001) %MON dynstat_salt_min             =   3.4000000000000E+01
(PID.TID 0000.0001) %MON dynstat_salt_mean            =   3.4497867514850E+01
(PID.TID 0000.0001) %MON dynstat_salt_sd              =   2.7007081306195E-01
(PID.TID 0000.0001) %MON dynstat_salt_del2            =   2.0147270258929E-06
(PID.TID 0000.0001) %MON advcfl_uvel_max              =   5.5213931242477E-03
(PID.TID 0000.0001) %MON advcfl_vvel_max              =   3.2978509839580E-03
(PID.TID 0000.0001) %MON advcfl_wvel_max              =   1.3750303607186E-02
(PID.TID 0000.0001) %MON advcfl_W_hf_max              =   1.3750303607186E-02
(PID.TID 0000.0001) %MON pe_b_mean                    =  -6.8137469629024E-01
(PID.TID 0000.0001) %MON ke_max                       =   1.4260142051153E-03
(PID.TID 0000.0001) %MON ke_mean                      =   1.5024256524280E-06
(PID.TID 0000.0001) %MON ke_vol                       =   4.6183186371574E+12
(PID.TID 0000.0001) // =======================================================
(PID.TID 0000.0001) // End MONITOR dynamic field statistics
(PID.TID 0000.0001) // =======================================================
(PID.TID 0000.0001) // =======================================================
(PID.TID 0000.0001) // Begin OBCS MONITOR field statistics
(PID.TID 0000.0001) // =======================================================
(PID.TID 0000.0001) %MON obc_N_vVel_max               =   5.8436923849471E-08
(PID.TID 0000.0001) %MON obc_N_vVel_min               =   5.8436923849470E-08
(PID.TID 0000.0001) %MON obc_N_vVel_mean              =   5.8436923849470E-08
(PID.TID 0000.0001) %MON obc_N_vVel_sd                =   2.6645352591004E-15
(PID.TID 0000.0001) %MON obc_N_vVel_Int               =   3.8568369740650E+00
(PID.TID 0000.0001) // =======================================================
(PID.TID 0000.0001) // End OBCS MONITOR field statistics
(PID.TID 0000.0001) // =======================================================
 cg2d: Sum(rhs),rhsMax =   3.00620935661695E+00  4.53039359805781E+02
(PID.TID 0000.0001)      cg2d_init_res =   5.63440218515066E-06
(PID.TID 0000.0001)      cg2d_iters(min,last) =      -1      78
(PID.TID 0000.0001)      cg2d_last_res =   9.15944962891107E-12
(PID.TID 0000.0001) // =======================================================
(PID.TID 0000.0001) // Begin MONITOR dynamic field statistics
(PID.TID 0000.0001) // =======================================================
(PID.TID 0000.0001) %MON time_tsnumber                =                  1434
(PID.TID 0000.0001) %MON time_secondsf                =   1.4340000000000E+05
(PID.TID 0000.0001) %MON dynstat_eta_max              =   5.7994615260915E+00
(PID.TID 0000.0001) %MON dynstat_eta_min              =  -1.4166430250125E+01
(PID.TID 0000.0001) %MON dynstat_eta_mean             =  -2.5220947451183E+00
(PID.TID 0000.0001) %MON dynstat_eta_sd               =   4.9405090650015E+00
(PID.TID 0000.0001) %MON dynstat_eta_del2             =   1.9059366573740E-01
(PID.TID 0000.0001) %MON dynstat_uvel_max             =   1.2217961973975E-02
(PID.TID 0000.0001) %MON dynstat_uvel_min             =  -5.5337477359146E-02
(PID.TID 0000.0001) %MON dynstat_uvel_mean            =   4.9936286780392E-09
(PID.TID 0000.0001) %MON dynstat_uvel_sd              =   1.6024876266757E-03
(PID.TID 0000.0001) %MON dynstat_uvel_del2            =   2.4889926178964E-06
(PID.TID 0000.0001) %MON dynstat_vvel_max             =   3.3021429967732E-02
(PID.TID 0000.0001) %MON dynstat_vvel_min             =  -1.6423397098324E-02
(PID.TID 0000.0001) %MON dynstat_vvel_mean            =   1.1621839367424E-07
(PID.TID 0000.0001) %MON dynstat_vvel_sd              =   7.0580094009417E-04
(PID.TID 0000.0001) %MON dynstat_vvel_del2            =   1.8449826002825E-06
(PID.TID 0000.0001) %MON dynstat_wvel_max             =   2.1389006464412E-03
(PID.TID 0000.0001) %MON dynstat_wvel_min             =  -2.7540387384636E-03
(PID.TID 0000.0001) %MON dynstat_wvel_mean            =   4.9966406691706E-10
(PID.TID 0000.0001) %MON dynstat_wvel_sd              =   3.5847178879760E-05
(PID.TID 0000.0001) %MON dynstat_wvel_del2            =   1.3771895586787E-07
(PID.TID 0000.0001) %MON dynstat_theta_max            =   1.2000000000000E+00
(PID.TID 0000.0001) %MON dynstat_theta_min            =  -1.0000000000000E+00
(PID.TID 0000.0001) %MON dynstat_theta_mean           =   5.6488242101649E-01
(PID.TID 0000.0001) %MON dynstat_theta_sd             =   8.4882803409818E-01
(PID.TID 0000.0001) %MON dynstat_theta_del2           =   5.0943537013955E-06
(PID.TID 0000.0001) %MON dynstat_salt_max             =   3.4700000000000E+01
(PID.TID 0000.0001) %MON dynstat_salt_min             =   3.4000000000000E+01
(PID.TID 0000.0001) %MON dynstat_salt_mean            =   3.4497867063478E+01
(PID.TID 0000.0001) %MON dynstat_salt_sd              =   2.7007062295889E-01
(PID.TID 0000.0001) %MON dynstat_salt_del2            =   2.0182023120107E-06
(PID.TID 0000.0001) %MON advcfl_uvel_max              =   5.5337477359146E-03
(PID.TID 0000.0001) %MON advcfl_vvel_max              =   3.3021429967732E-03
(PID.TID 0000.0001) %MON advcfl_wvel_max              =   1.3770193692318E-02
(PID.TID 0000.0001) %MON advcfl_W_hf_max              =   1.3770193692318E-02
(PID.TID 0000.0001) %MON pe_b_mean                    =  -6.8137165119073E-01
(PID.TID 0000.0001) %MON ke_max                       =   1.4322049701734E-03
(PID.TID 0000.0001) %MON ke_mean                      =   1.5089166785774E-06
(PID.TID 0000.0001) %MON ke_vol                       =   4.6183186971489E+12
(PID.TID 0000.0001) // =======================================================
(PID.TID 0000.0001) // End MONITOR dynamic field statistics
(PID.TID 0000.0001) // =======================================================
(PID.TID 0000.0001) // =======================================================
(PID.TID 0000.0001) // Begin OBCS MONITOR field statistics
(PID.TID 0000.0001) // =======================================================
(PID.TID 0000.0001) %MON obc_N_vVel_max               =   6.3247845721980E-08
(PID.TID 0000.0001) %MON obc_N_vVel_min               =   6.3247845721979E-08
(PID.TID 0000.0001) %MON obc_N_vVel_mean              =   6.3247845721980E-08
(PID.TID 0000.0001) %MON obc_N_vVel_sd                =  -1.2069571849881E-28
(PID.TID 0000.0001) %MON obc_N_vVel_Int               =   4.1743578176507E+00
(PID.TID 0000.0001) // =======================================================
(PID.TID 0000.0001) // End OBCS MONITOR field statistics
(PID.TID 0000.0001) // =======================================================
 cg2d: Sum(rhs),rhsMax =   3.00619741903265E+00  4.53039340163206E+02
(PID.TID 0000.0001)      cg2d_init_res =   5.64342572685907E-06
(PID.TID 0000.0001)      cg2d_iters(min,last) =      -1      78
(PID.TID 0000.0001)      cg2d_last_res =   9.17806605628781E-12
(PID.TID 0000.0001) // =======================================================
(PID.TID 0000.0001) // Begin MONITOR dynamic field statistics
(PID.TID 0000.0001) // =======================================================
(PID.TID 0000.0001) %MON time_tsnumber                =                  1435
(PID.TID 0000.0001) %MON time_secondsf                =   1.4350000000000E+05
(PID.TID 0000.0001) %MON dynstat_eta_max              =   5.7994646698749E+00
(PID.TID 0000.0001) %MON dynstat_eta_min              =  -1.4166407604071E+01
(PID.TID 0000.0001) %MON dynstat_eta_mean             =  -2.5220846205905E+00
(PID.TID 0000.0001) %MON dynstat_eta_sd               =   4.9405061587095E+00
(PID.TID 0000.0001) %MON dynstat_eta_del2             =   1.9059369648586E-01
(PID.TID 0000.0001) %MON dynstat_uvel_max             =   1.2240973488670E-02
(PID.TID 0000.0001) %MON dynstat_uvel_min             =  -5.5461120664425E-02
(PID.TID 0000.0001) %MON dynstat_uvel_mean            =   5.0154948660280E-09
(PID.TID 0000.0001) %MON dynstat_uvel_sd              =   1.6060175976211E-03
(PID.TID 0000.0001) %MON dynstat_uvel_del2            =   2.4947379665941E-06
(PID.TID 0000.0001) %MON dynstat_vvel_max             =   3.3064354445101E-02
(PID.TID 0000.0001) %MON dynstat_vvel_min             =  -1.6466066483716E-02
(PID.TID 0000.0001) %MON dynstat_vvel_mean            =   1.2108443707828E-07
(PID.TID 0000.0001) %MON dynstat_vvel_sd              =   7.0715897724926E-04
(PID.TID 0000.0001) %MON dynstat_vvel_del2            =   1.8482080793176E-06
(PID.TID 0000.0001) %MON dynstat_wvel_max             =   2.1424578465815E-03
(PID.TID 0000.0001) %MON dynstat_wvel_min             =  -2.7580020823291E-03
(PID.TID 0000.0001) %MON dynstat_wvel_mean            =   4.9825601912508E-10
(PID.TID 0000.0001) %MON dynstat_wvel_sd              =   3.5911751332725E-05
(PID.TID 0000.0001) %MON dynstat_wvel_del2            =   1.3791355704034E-07
(PID.TID 0000.0001) %MON dynstat_theta_max            =   1.2000000000000E+00
(PID.TID 0000.0001) %MON dynstat_theta_min            =  -1.0000000000000E+00
(PID.TID 0000.0001) %MON dynstat_theta_mean           =   5.6488129007859E-01
(PID.TID 0000.0001) %MON dynstat_theta_sd             =   8.4882752764874E-01
(PID.TID 0000.0001) %MON dynstat_theta_del2           =   5.1031004563929E-06
(PID.TID 0000.0001) %MON dynstat_salt_max             =   3.4700000000000E+01
(PID.TID 0000.0001) %MON dynstat_salt_min             =   3.4000000000000E+01
(PID.TID 0000.0001) %MON dynstat_salt_mean            =   3.4497866611327E+01
(PID.TID 0000.0001) %MON dynstat_salt_sd              =   2.7007043256994E-01
(PID.TID 0000.0001) %MON dynstat_salt_del2            =   2.0216814208161E-06
(PID.TID 0000.0001) %MON advcfl_uvel_max              =   5.5461120664425E-03
(PID.TID 0000.0001) %MON advcfl_vvel_max              =   3.3064354445101E-03
(PID.TID 0000.0001) %MON advcfl_wvel_max              =   1.3790010411646E-02
(PID.TID 0000.0001) %MON advcfl_W_hf_max              =   1.3790010411646E-02
(PID.TID 0000.0001) %MON pe_b_mean                    =  -6.8136860171883E-01
(PID.TID 0000.0001) %MON ke_max                       =   1.4384176295785E-03
(PID.TID 0000.0001) %MON ke_mean                      =   1.5154325884618E-06
(PID.TID 0000.0001) %MON ke_vol                       =   4.6183187572140E+12
(PID.TID 0000.0001) // =======================================================
(PID.TID 0000.0001) // End MONITOR dynamic field statistics
(PID.TID 0000.0001) // =======================================================
(PID.TID 0000.0001) // =======================================================
(PID.TID 0000.0001) // Begin OBCS MONITOR field statistics
(PID.TID 0000.0001) // =======================================================
(PID.TID 0000.0001) %MON obc_N_vVel_max               =   6.7938861314030E-08
(PID.TID 0000.0001) %MON obc_N_vVel_min               =   6.7938861314029E-08
(PID.TID 0000.0001) %MON obc_N_vVel_mean              =   6.7938861314030E-08
(PID.TID 0000.0001) %MON obc_N_vVel_sd                =  -1.5934990285464E-28
(PID.TID 0000.0001) %MON obc_N_vVel_Int               =   4.4839648467260E+00
(PID.TID 0000.0001) // =======================================================
(PID.TID 0000.0001) // End OBCS MONITOR field statistics
(PID.TID 0000.0001) // =======================================================
 cg2d: Sum(rhs),rhsMax =   3.00618546614487E+00  4.53039320525050E+02
(PID.TID 0000.0001)      cg2d_init_res =   5.65248574667008E-06
(PID.TID 0000.0001)      cg2d_iters(min,last) =      -1      78
(PID.TID 0000.0001)      cg2d_last_res =   9.19675075699597E-12
(PID.TID 0000.0001) // =======================================================
(PID.TID 0000.0001) // Begin MONITOR dynamic field statistics
(PID.TID 0000.0001) // =======================================================
(PID.TID 0000.0001) %MON time_tsnumber                =                  1436
(PID.TID 0000.0001) %MON time_secondsf                =   1.4360000000000E+05
(PID.TID 0000.0001) %MON dynstat_eta_max              =   5.7994678107060E+00
(PID.TID 0000.0001) %MON dynstat_eta_min              =  -1.4166384915648E+01
(PID.TID 0000.0001) %MON dynstat_eta_mean             =  -2.5220744832492E+00
(PID.TID 0000.0001) %MON dynstat_eta_sd               =   4.9405032486644E+00
(PID.TID 0000.0001) %MON dynstat_eta_del2             =   1.9059372728895E-01
(PID.TID 0000.0001) %MON dynstat_uvel_max             =   1.2263983741547E-02
(PID.TID 0000.0001) %MON dynstat_uvel_min             =  -5.5584860851756E-02
(PID.TID 0000.0001) %MON dynstat_uvel_mean            =   5.0414020092559E-09
(PID.TID 0000.0001) %MON dynstat_uvel_sd              =   1.6095534889606E-03
(PID.TID 0000.0001) %MON dynstat_uvel_del2            =   2.5004947947341E-06
(PID.TID 0000.0001) %MON dynstat_vvel_max             =   3.3107283203426E-02
(PID.TID 0000.0001) %MON dynstat_vvel_min             =  -1.6508805255256E-02
(PID.TID 0000.0001) %MON dynstat_vvel_mean            =   1.2566679275150E-07
(PID.TID 0000.0001) %MON dynstat_vvel_sd              =   7.0851917507367E-04
(PID.TID 0000.0001) %MON dynstat_vvel_del2            =   1.8514367040842E-06
(PID.TID 0000.0001) %MON dynstat_wvel_max             =   2.1460164933114E-03
(PID.TID 0000.0001) %MON dynstat_wvel_min             =  -2.7619505951540E-03
(PID.TID 0000.0001) %MON dynstat_wvel_mean            =   4.9623123166978E-10
(PID.TID 0000.0001) %MON dynstat_wvel_sd              =   3.5976361246465E-05
(PID.TID 0000.0001) %MON dynstat_wvel_del2            =   1.3810719975913E-07
(PID.TID 0000.0001) %MON dynstat_theta_max            =   1.2000000000000E+00
(PID.TID 0000.0001) %MON dynstat_theta_min            =  -1.0000000000000E+00
(PID.TID 0000.0001) %MON dynstat_theta_mean           =   5.6488015719717E-01
(PID.TID 0000.0001) %MON dynstat_theta_sd             =   8.4882702040871E-01
(PID.TID 0000.0001) %MON dynstat_theta_del2           =   5.1118566557063E-06
(PID.TID 0000.0001) %MON dynstat_salt_max             =   3.4700000000000E+01
(PID.TID 0000.0001) %MON dynstat_salt_min             =   3.4000000000000E+01
(PID.TID 0000.0001) %MON dynstat_salt_mean            =   3.4497866158396E+01
(PID.TID 0000.0001) %MON dynstat_salt_sd              =   2.7007024189544E-01
(PID.TID 0000.0001) %MON dynstat_salt_del2            =   2.0251643348828E-06
(PID.TID 0000.0001) %MON advcfl_uvel_max              =   5.5584860851756E-03
(PID.TID 0000.0001) %MON advcfl_vvel_max              =   3.3107283203426E-03
(PID.TID 0000.0001) %MON advcfl_wvel_max              =   1.3809752975770E-02
(PID.TID 0000.0001) %MON advcfl_W_hf_max              =   1.3809752975770E-02
(PID.TID 0000.0001) %MON pe_b_mean                    =  -6.8136554780147E-01
(PID.TID 0000.0001) %MON ke_max                       =   1.4446522298803E-03
(PID.TID 0000.0001) %MON ke_mean                      =   1.5219734498748E-06
(PID.TID 0000.0001) %MON ke_vol                       =   4.6183188173537E+12
(PID.TID 0000.0001) // =======================================================
(PID.TID 0000.0001) // End MONITOR dynamic field statistics
(PID.TID 0000.0001) // =======================================================
(PID.TID 0000.0001) // =======================================================
(PID.TID 0000.0001) // Begin OBCS MONITOR field statistics
(PID.TID 0000.0001) // =======================================================
(PID.TID 0000.0001) %MON obc_N_vVel_max               =   7.2419543044355E-08
(PID.TID 0000.0001) %MON obc_N_vVel_min               =   7.2419543044355E-08
(PID.TID 0000.0001) %MON obc_N_vVel_mean              =   7.2419543044355E-08
(PID.TID 0000.0001) %MON obc_N_vVel_sd                =   8.5652824930386E-15
(PID.TID 0000.0001) %MON obc_N_vVel_Int               =   4.7796898409274E+00
(PID.TID 0000.0001) // =======================================================
(PID.TID 0000.0001) // End OBCS MONITOR field statistics
(PID.TID 0000.0001) // =======================================================
 cg2d: Sum(rhs),rhsMax =   3.00617349767301E+00  4.53039300870140E+02
(PID.TID 0000.0001)      cg2d_init_res =   5.66158375500002E-06
(PID.TID 0000.0001)      cg2d_iters(min,last) =      -1      78
(PID.TID 0000.0001)      cg2d_last_res =   9.21552458295148E-12
(PID.TID 0000.0001) // =======================================================
(PID.TID 0000.0001) // Begin MONITOR dynamic field statistics
(PID.TID 0000.0001) // =======================================================
(PID.TID 0000.0001) %MON time_tsnumber                =                  1437
(PID.TID 0000.0001) %MON time_secondsf                =   1.4370000000000E+05
(PID.TID 0000.0001) %MON dynstat_eta_max              =   5.7994709492492E+00
(PID.TID 0000.0001) %MON dynstat_eta_min              =  -1.4166362183935E+01
(PID.TID 0000.0001) %MON dynstat_eta_mean             =  -2.5220643327410E+00
(PID.TID 0000.0001) %MON dynstat_eta_sd               =   4.9405003346788E+00
(PID.TID 0000.0001) %MON dynstat_eta_del2             =   1.9059375814634E-01
(PID.TID 0000.0001) %MON dynstat_uvel_max             =   1.2286992389885E-02
(PID.TID 0000.0001) %MON dynstat_uvel_min             =  -5.5708697619409E-02
(PID.TID 0000.0001) %MON dynstat_uvel_mean            =   5.0710850349940E-09
(PID.TID 0000.0001) %MON dynstat_uvel_sd              =   1.6130953011817E-03
(PID.TID 0000.0001) %MON dynstat_uvel_del2            =   2.5062631168485E-06
(PID.TID 0000.0001) %MON dynstat_vvel_max             =   3.3150216174594E-02
(PID.TID 0000.0001) %MON dynstat_vvel_min             =  -1.6551613222902E-02
(PID.TID 0000.0001) %MON dynstat_vvel_mean            =   1.2988067734247E-07
(PID.TID 0000.0001) %MON dynstat_vvel_sd              =   7.0988152872046E-04
(PID.TID 0000.0001) %MON dynstat_vvel_del2            =   1.8546684930168E-06
(PID.TID 0000.0001) %MON dynstat_wvel_max             =   2.1495765710652E-03
(PID.TID 0000.0001) %MON dynstat_wvel_min             =  -2.7658841194134E-03
(PID.TID 0000.0001) %MON dynstat_wvel_mean            =   4.9365266718987E-10
(PID.TID 0000.0001) %MON dynstat_wvel_sd              =   3.6041009133936E-05
(PID.TID 0000.0001) %MON dynstat_wvel_del2            =   1.3830000896480E-07
(PID.TID 0000.0001) %MON dynstat_theta_max            =   1.2000000000000E+00
(PID.TID 0000.0001) %MON dynstat_theta_min            =  -1.0000000000000E+00
(PID.TID 0000.0001) %MON dynstat_theta_mean           =   5.6487902236887E-01
(PID.TID 0000.0001) %MON dynstat_theta_sd             =   8.4882651237968E-01
(PID.TID 0000.0001) %MON dynstat_theta_del2           =   5.1206218705804E-06
(PID.TID 0000.0001) %MON dynstat_salt_max             =   3.4700000000000E+01
(PID.TID 0000.0001) %MON dynstat_salt_min             =   3.4000000000000E+01
(PID.TID 0000.0001) %MON dynstat_salt_mean            =   3.4497865704683E+01
(PID.TID 0000.0001) %MON dynstat_salt_sd              =   2.7007005093601E-01
(PID.TID 0000.0001) %MON dynstat_salt_del2            =   2.0286509421592E-06
(PID.TID 0000.0001) %MON advcfl_uvel_max              =   5.5708697619409E-03
(PID.TID 0000.0001) %MON advcfl_vvel_max              =   3.3150216174594E-03
(PID.TID 0000.0001) %MON advcfl_wvel_max              =   1.3829420597067E-02
(PID.TID 0000.0001) %MON advcfl_W_hf_max              =   1.3829420597067E-02
(PID.TID 0000.0001) %MON pe_b_mean                    =  -6.8136248934784E-01
(PID.TID 0000.0001) %MON ke_max                       =   1.4509088173259E-03
(PID.TID 0000.0001) %MON ke_mean                      =   1.5285393305699E-06
(PID.TID 0000.0001) %MON ke_vol                       =   4.6183188775695E+12
(PID.TID 0000.0001) // =======================================================
(PID.TID 0000.0001) // End MONITOR dynamic field statistics
(PID.TID 0000.0001) // =======================================================
(PID.TID 0000.0001) // =======================================================
(PID.TID 0000.0001) // Begin OBCS MONITOR field statistics
(PID.TID 0000.0001) // =======================================================
(PID.TID 0000.0001) %MON obc_N_vVel_max               =   7.6604774459154E-08
(PID.TID 0000.0001) %MON obc_N_vVel_min               =   7.6604774459152E-08
(PID.TID 0000.0001) %MON obc_N_vVel_mean              =   7.6604774459152E-08
(PID.TID 0000.0001) %MON obc_N_vVel_sd                =   1.2466178176512E-14
(PID.TID 0000.0001) %MON obc_N_vVel_Int               =   5.0559151143041E+00
(PID.TID 0000.0001) // =======================================================
(PID.TID 0000.0001) // End OBCS MONITOR field statistics
(PID.TID 0000.0001) // =======================================================
 cg2d: Sum(rhs),rhsMax =   3.00616151323202E+00  4.53039281177469E+02
(PID.TID 0000.0001)      cg2d_init_res =   5.67072487690645E-06
(PID.TID 0000.0001)      cg2d_iters(min,last) =      -1      78
(PID.TID 0000.0001)      cg2d_last_res =   9.23438815067249E-12
(PID.TID 0000.0001) // =======================================================
(PID.TID 0000.0001) // Begin MONITOR dynamic field statistics
(PID.TID 0000.0001) // =======================================================
(PID.TID 0000.0001) %MON time_tsnumber                =                  1438
(PID.TID 0000.0001) %MON time_secondsf                =   1.4380000000000E+05
(PID.TID 0000.0001) %MON dynstat_eta_max              =   5.7994740862901E+00
(PID.TID 0000.0001) %MON dynstat_eta_min              =  -1.4166339407850E+01
(PID.TID 0000.0001) %MON dynstat_eta_mean             =  -2.5220541686259E+00
(PID.TID 0000.0001) %MON dynstat_eta_sd               =   4.9404974165443E+00
(PID.TID 0000.0001) %MON dynstat_eta_del2             =   1.9059378905769E-01
(PID.TID 0000.0001) %MON dynstat_uvel_max             =   1.2309999086426E-02
(PID.TID 0000.0001) %MON dynstat_uvel_min             =  -5.5832630669837E-02
(PID.TID 0000.0001) %MON dynstat_uvel_mean            =   5.1042077687736E-09
(PID.TID 0000.0001) %MON dynstat_uvel_sd              =   1.6166430346853E-03
(PID.TID 0000.0001) %MON dynstat_uvel_del2            =   2.5120429476639E-06
(PID.TID 0000.0001) %MON dynstat_vvel_max             =   3.3193153290879E-02
(PID.TID 0000.0001) %MON dynstat_vvel_min             =  -1.6594490183957E-02
(PID.TID 0000.0001) %MON dynstat_vvel_mean            =   1.3364988421746E-07
(PID.TID 0000.0001) %MON dynstat_vvel_sd              =   7.1124603315155E-04
(PID.TID 0000.0001) %MON dynstat_vvel_del2            =   1.8579034836379E-06
(PID.TID 0000.0001) %MON dynstat_wvel_max             =   2.1531380641587E-03
(PID.TID 0000.0001) %MON dynstat_wvel_min             =  -2.7698024978823E-03
(PID.TID 0000.0001) %MON dynstat_wvel_mean            =   4.9059432833516E-10
(PID.TID 0000.0001) %MON dynstat_wvel_sd              =   3.6105702709967E-05
(PID.TID 0000.0001) %MON dynstat_wvel_del2            =   1.3849219449632E-07
(PID.TID 0000.0001) %MON dynstat_theta_max            =   1.2000000000000E+00
(PID.TID 0000.0001) %MON dynstat_theta_min            =  -1.0000000000000E+00
(PID.TID 0000.0001) %MON dynstat_theta_mean           =   5.6487788559023E-01
(PID.TID 0000.0001) %MON dynstat_theta_sd             =   8.4882600356230E-01
(PID.TID 0000.0001) %MON dynstat_theta_del2           =   5.1293959395866E-06
(PID.TID 0000.0001) %MON dynstat_salt_max             =   3.4700000000000E+01
(PID.TID 0000.0001) %MON dynstat_salt_min             =   3.4000000000000E+01
(PID.TID 0000.0001) %MON dynstat_salt_mean            =   3.4497865250187E+01
(PID.TID 0000.0001) %MON dynstat_salt_sd              =   2.7006985969207E-01
(PID.TID 0000.0001) %MON dynstat_salt_del2            =   2.0321411106586E-06
(PID.TID 0000.0001) %MON advcfl_uvel_max              =   5.5832630669837E-03
(PID.TID 0000.0001) %MON advcfl_vvel_max              =   3.3193153290879E-03
(PID.TID 0000.0001) %MON advcfl_wvel_max              =   1.3849012489412E-02
(PID.TID 0000.0001) %MON advcfl_W_hf_max              =   1.3849012489412E-02
(PID.TID 0000.0001) %MON pe_b_mean                    =  -6.8135942625142E-01
(PID.TID 0000.0001) %MON ke_max                       =   1.4571874378239E-03
(PID.TID 0000.0001) %MON ke_mean                      =   1.5351302981251E-06
(PID.TID 0000.0001) %MON ke_vol                       =   4.6183189378635E+12
(PID.TID 0000.0001) // =======================================================
(PID.TID 0000.0001) // End MONITOR dynamic field statistics
(PID.TID 0000.0001) // =======================================================
(PID.TID 0000.0001) // =======================================================
(PID.TID 0000.0001) // Begin OBCS MONITOR field statistics
(PID.TID 0000.0001) // =======================================================
(PID.TID 0000.0001) %MON obc_N_vVel_max               =   8.0416511776630E-08
(PID.TID 0000.0001) %MON obc_N_vVel_min               =   8.0416511776629E-08
(PID.TID 0000.0001) %MON obc_N_vVel_mean              =   8.0416511776630E-08
(PID.TID 0000.0001) %MON obc_N_vVel_sd                =  -2.0983700078879E-28
(PID.TID 0000.0001) %MON obc_N_vVel_Int               =   5.3074897772576E+00
(PID.TID 0000.0001) // =======================================================
(PID.TID 0000.0001) // End OBCS MONITOR field statistics
(PID.TID 0000.0001) // =======================================================
 cg2d: Sum(rhs),rhsMax =   3.00614951234302E+00  4.53039261426396E+02
(PID.TID 0000.0001)      cg2d_init_res =   5.67991155572368E-06
(PID.TID 0000.0001)      cg2d_iters(min,last) =      -1      78
(PID.TID 0000.0001)      cg2d_last_res =   9.25335353776465E-12
(PID.TID 0000.0001) // =======================================================
(PID.TID 0000.0001) // Begin MONITOR dynamic field statistics
(PID.TID 0000.0001) // =======================================================
(PID.TID 0000.0001) %MON time_tsnumber                =                  1439
(PID.TID 0000.0001) %MON time_secondsf                =   1.4390000000000E+05
(PID.TID 0000.0001) %MON dynstat_eta_max              =   5.7994772227188E+00
(PID.TID 0000.0001) %MON dynstat_eta_min              =  -1.4166316586192E+01
(PID.TID 0000.0001) %MON dynstat_eta_mean             =  -2.5220439903874E+00
(PID.TID 0000.0001) %MON dynstat_eta_sd               =   4.9404944940355E+00
(PID.TID 0000.0001) %MON dynstat_eta_del2             =   1.9059382002264E-01
(PID.TID 0000.0001) %MON dynstat_uvel_max             =   1.2333003481886E-02
(PID.TID 0000.0001) %MON dynstat_uvel_min             =  -5.5956659710223E-02
(PID.TID 0000.0001) %MON dynstat_uvel_mean            =   5.1403678757641E-09
(PID.TID 0000.0001) %MON dynstat_uvel_sd              =   1.6201966898194E-03
(PID.TID 0000.0001) %MON dynstat_uvel_del2            =   2.5178343022544E-06
(PID.TID 0000.0001) %MON dynstat_vvel_max             =   3.3236094485133E-02
(PID.TID 0000.0001) %MON dynstat_vvel_min             =  -1.6637435926494E-02
(PID.TID 0000.0001) %MON dynstat_vvel_mean            =   1.3690829504299E-07
(PID.TID 0000.0001) %MON dynstat_vvel_sd              =   7.1261268301639E-04
(PID.TID 0000.0001) %MON dynstat_vvel_del2            =   1.8611417268325E-06
(PID.TID 0000.0001) %MON dynstat_wvel_max             =   2.1567009567786E-03
(PID.TID 0000.0001) %MON dynstat_wvel_min             =  -2.7737055735592E-03
(PID.TID 0000.0001) %MON dynstat_wvel_mean            =   4.8713940971234E-10
(PID.TID 0000.0001) %MON dynstat_wvel_sd              =   3.6170454685961E-05
(PID.TID 0000.0001) %MON dynstat_wvel_del2            =   1.3868402977422E-07
(PID.TID 0000.0001) %MON dynstat_theta_max            =   1.2000000000000E+00
(PID.TID 0000.0001) %MON dynstat_theta_min            =  -1.0000000000000E+00
(PID.TID 0000.0001) %MON dynstat_theta_mean           =   5.6487674685777E-01
(PID.TID 0000.0001) %MON dynstat_theta_sd             =   8.4882549395718E-01
(PID.TID 0000.0001) %MON dynstat_theta_del2           =   5.1381795120356E-06
(PID.TID 0000.0001) %MON dynstat_salt_max             =   3.4700000000000E+01
(PID.TID 0000.0001) %MON dynstat_salt_min             =   3.4000000000000E+01
(PID.TID 0000.0001) %MON dynstat_salt_mean            =   3.4497864794907E+01
(PID.TID 0000.0001) %MON dynstat_salt_sd              =   2.7006966816384E-01
(PID.TID 0000.0001) %MON dynstat_salt_del2            =   2.0356351190505E-06
(PID.TID 0000.0001) %MON advcfl_uvel_max              =   5.5956659710223E-03
(PID.TID 0000.0001) %MON advcfl_vvel_max              =   3.3236094485133E-03
(PID.TID 0000.0001) %MON advcfl_wvel_max              =   1.3868527867796E-02
(PID.TID 0000.0001) %MON advcfl_W_hf_max              =   1.3868527867796E-02
(PID.TID 0000.0001) %MON pe_b_mean                    =  -6.8135635839228E-01
(PID.TID 0000.0001) %MON ke_max                       =   1.4634881369451E-03
(PID.TID 0000.0001) %MON ke_mean                      =   1.5417464199079E-06
(PID.TID 0000.0001) %MON ke_vol                       =   4.6183189982384E+12
(PID.TID 0000.0001) // =======================================================
(PID.TID 0000.0001) // End MONITOR dynamic field statistics
(PID.TID 0000.0001) // =======================================================
(PID.TID 0000.0001) // =======================================================
(PID.TID 0000.0001) // Begin OBCS MONITOR field statistics
(PID.TID 0000.0001) // =======================================================
(PID.TID 0000.0001) %MON obc_N_vVel_max               =   8.3785335890555E-08
(PID.TID 0000.0001) %MON obc_N_vVel_min               =   8.3785335890553E-08
(PID.TID 0000.0001) %MON obc_N_vVel_mean              =   8.3785335890553E-08
(PID.TID 0000.0001) %MON obc_N_vVel_sd                =   1.3381757189740E-14
(PID.TID 0000.0001) %MON obc_N_vVel_Int               =   5.5298321687765E+00
(PID.TID 0000.0001) // =======================================================
(PID.TID 0000.0001) // End OBCS MONITOR field statistics
(PID.TID 0000.0001) // =======================================================
 cg2d: Sum(rhs),rhsMax =   3.00613749444409E+00  4.53039241597007E+02
(PID.TID 0000.0001)      cg2d_init_res =   5.68913462695702E-06
(PID.TID 0000.0001)      cg2d_iters(min,last) =      -1      78
(PID.TID 0000.0001)      cg2d_last_res =   9.27251783318659E-12
(PID.TID 0000.0001) // =======================================================
(PID.TID 0000.0001) // Begin MONITOR dynamic field statistics
(PID.TID 0000.0001) // =======================================================
(PID.TID 0000.0001) %MON time_tsnumber                =                  1440
(PID.TID 0000.0001) %MON time_secondsf                =   1.4400000000000E+05
(PID.TID 0000.0001) %MON dynstat_eta_max              =   5.7994803595281E+00
(PID.TID 0000.0001) %MON dynstat_eta_min              =  -1.4166293717645E+01
(PID.TID 0000.0001) %MON dynstat_eta_mean             =  -2.5220337974431E+00
(PID.TID 0000.0001) %MON dynstat_eta_sd               =   4.9404915669170E+00
(PID.TID 0000.0001) %MON dynstat_eta_del2             =   1.9059385104091E-01
(PID.TID 0000.0001) %MON dynstat_uvel_max             =   1.2356516455840E-02
(PID.TID 0000.0001) %MON dynstat_uvel_min             =  -5.6080784452099E-02
(PID.TID 0000.0001) %MON dynstat_uvel_mean            =   5.1791047714676E-09
(PID.TID 0000.0001) %MON dynstat_uvel_sd              =   1.6237562668294E-03
(PID.TID 0000.0001) %MON dynstat_uvel_del2            =   2.5236371951841E-06
(PID.TID 0000.0001) %MON dynstat_vvel_max             =   3.3279039691015E-02
(PID.TID 0000.0001) %MON dynstat_vvel_min             =  -1.6680450228662E-02
(PID.TID 0000.0001) %MON dynstat_vvel_mean            =   1.3960117761611E-07
(PID.TID 0000.0001) %MON dynstat_vvel_sd              =   7.1398147244174E-04
(PID.TID 0000.0001) %MON dynstat_vvel_del2            =   1.8643832820821E-06
(PID.TID 0000.0001) %MON dynstat_wvel_max             =   2.1602652329877E-03
(PID.TID 0000.0001) %MON dynstat_wvel_min             =  -2.7775931896418E-03
(PID.TID 0000.0001) %MON dynstat_wvel_mean            =   4.8337832118497E-10
(PID.TID 0000.0001) %MON dynstat_wvel_sd              =   3.6235279939396E-05
(PID.TID 0000.0001) %MON dynstat_wvel_del2            =   1.3887582436567E-07
(PID.TID 0000.0001) %MON dynstat_theta_max            =   1.2000000000000E+00
(PID.TID 0000.0001) %MON dynstat_theta_min            =  -1.0000000000000E+00
(PID.TID 0000.0001) %MON dynstat_theta_mean           =   5.6487560616799E-01
(PID.TID 0000.0001) %MON dynstat_theta_sd             =   8.4882498356513E-01
(PID.TID 0000.0001) %MON dynstat_theta_del2           =   5.1469725701938E-06
(PID.TID 0000.0001) %MON dynstat_salt_max             =   3.4700000000000E+01
(PID.TID 0000.0001) %MON dynstat_salt_min             =   3.4000000000000E+01
(PID.TID 0000.0001) %MON dynstat_salt_mean            =   3.4497864338841E+01
(PID.TID 0000.0001) %MON dynstat_salt_sd              =   2.7006947635152E-01
(PID.TID 0000.0001) %MON dynstat_salt_del2            =   2.0391329682642E-06
(PID.TID 0000.0001) %MON advcfl_uvel_max              =   5.6080784452099E-03
(PID.TID 0000.0001) %MON advcfl_vvel_max              =   3.3279039691015E-03
(PID.TID 0000.0001) %MON advcfl_wvel_max              =   1.3887965948209E-02
(PID.TID 0000.0001) %MON advcfl_W_hf_max              =   1.3887965948209E-02
(PID.TID 0000.0001) %MON pe_b_mean                    =  -6.8135328563952E-01
(PID.TID 0000.0001) %MON ke_max                       =   1.4698109598767E-03
(PID.TID 0000.0001) %MON ke_mean                      =   1.5483877628427E-06
(PID.TID 0000.0001) %MON ke_vol                       =   4.6183190586971E+12
(PID.TID 0000.0001) // =======================================================
(PID.TID 0000.0001) // End MONITOR dynamic field statistics
(PID.TID 0000.0001) // =======================================================
(PID.TID 0000.0001) // =======================================================
(PID.TID 0000.0001) // Begin OBCS MONITOR field statistics
(PID.TID 0000.0001) // =======================================================
(PID.TID 0000.0001) %MON obc_N_vVel_max               =   8.6651848143402E-08
(PID.TID 0000.0001) %MON obc_N_vVel_min               =   8.6651848143400E-08
(PID.TID 0000.0001) %MON obc_N_vVel_mean              =   8.6651848143402E-08
(PID.TID 0000.0001) %MON obc_N_vVel_sd                =  -2.8398992587956E-28
(PID.TID 0000.0001) %MON obc_N_vVel_Int               =   5.7190219774646E+00
(PID.TID 0000.0001) // =======================================================
(PID.TID 0000.0001) // End OBCS MONITOR field statistics
(PID.TID 0000.0001) // =======================================================
 cg2d: Sum(rhs),rhsMax =   3.00612545890163E+00  4.53039221670484E+02
(PID.TID 0000.0001)      cg2d_init_res =   5.69840367798286E-06
(PID.TID 0000.0001)      cg2d_iters(min,last) =      -1      78
(PID.TID 0000.0001)      cg2d_last_res =   9.29184883824945E-12
(PID.TID 0000.0001) // =======================================================
(PID.TID 0000.0001) // Begin MONITOR dynamic field statistics
(PID.TID 0000.0001) // =======================================================
(PID.TID 0000.0001) %MON time_tsnumber                =                  1441
(PID.TID 0000.0001) %MON time_secondsf                =   1.4410000000000E+05
(PID.TID 0000.0001) %MON dynstat_eta_max              =   5.7994834977616E+00
(PID.TID 0000.0001) %MON dynstat_eta_min              =  -1.4166270800818E+01
(PID.TID 0000.0001) %MON dynstat_eta_mean             =  -2.5220235891567E+00
(PID.TID 0000.0001) %MON dynstat_eta_sd               =   4.9404886349444E+00
(PID.TID 0000.0001) %MON dynstat_eta_del2             =   1.9059388211213E-01
(PID.TID 0000.0001) %MON dynstat_uvel_max             =   1.2384160666387E-02
(PID.TID 0000.0001) %MON dynstat_uvel_min             =  -5.6205004611993E-02
(PID.TID 0000.0001) %MON dynstat_uvel_mean            =   5.2199090630996E-09
(PID.TID 0000.0001) %MON dynstat_uvel_sd              =   1.6273217658844E-03
(PID.TID 0000.0001) %MON dynstat_uvel_del2            =   2.5294516409881E-06
(PID.TID 0000.0001) %MON dynstat_vvel_max             =   3.3321988843081E-02
(PID.TID 0000.0001) %MON dynstat_vvel_min             =  -1.6723532858000E-02
(PID.TID 0000.0001) %MON dynstat_vvel_mean            =   1.4168623220550E-07
(PID.TID 0000.0001) %MON dynstat_vvel_sd              =   7.1535239483064E-04
(PID.TID 0000.0001) %MON dynstat_vvel_del2            =   1.8676282103861E-06
(PID.TID 0000.0001) %MON dynstat_wvel_max             =   2.1638308767261E-03
(PID.TID 0000.0001) %MON dynstat_wvel_min             =  -2.7814651894682E-03
(PID.TID 0000.0001) %MON dynstat_wvel_mean            =   4.7940719338838E-10
(PID.TID 0000.0001) %MON dynstat_wvel_sd              =   3.6300192395938E-05
(PID.TID 0000.0001) %MON dynstat_wvel_del2            =   1.3906789427487E-07
(PID.TID 0000.0001) %MON dynstat_theta_max            =   1.2000000000000E+00
(PID.TID 0000.0001) %MON dynstat_theta_min            =  -1.0000000000000E+00
(PID.TID 0000.0001) %MON dynstat_theta_mean           =   5.6487446351728E-01
(PID.TID 0000.0001) %MON dynstat_theta_sd             =   8.4882447238607E-01
(PID.TID 0000.0001) %MON dynstat_theta_del2           =   5.1557751461756E-06
(PID.TID 0000.0001) %MON dynstat_salt_max             =   3.4700000000000E+01
(PID.TID 0000.0001) %MON dynstat_salt_min             =   3.4000000000000E+01
(PID.TID 0000.0001) %MON dynstat_salt_mean            =   3.4497863881989E+01
(PID.TID 0000.0001) %MON dynstat_salt_sd              =   2.7006928425536E-01
(PID.TID 0000.0001) %MON dynstat_salt_del2            =   2.0426346704835E-06
(PID.TID 0000.0001) %MON advcfl_uvel_max              =   5.6205004611993E-03
(PID.TID 0000.0001) %MON advcfl_vvel_max              =   3.3321988843081E-03
(PID.TID 0000.0001) %MON advcfl_wvel_max              =   1.3907325947341E-02
(PID.TID 0000.0001) %MON advcfl_W_hf_max              =   1.3907325947341E-02
(PID.TID 0000.0001) %MON pe_b_mean                    =  -6.8135020785383E-01
(PID.TID 0000.0001) %MON ke_max                       =   1.4761559514917E-03
(PID.TID 0000.0001) %MON ke_mean                      =   1.5550543933053E-06
(PID.TID 0000.0001) %MON ke_vol                       =   4.6183191192432E+12
(PID.TID 0000.0001) // =======================================================
(PID.TID 0000.0001) // End MONITOR dynamic field statistics
(PID.TID 0000.0001) // =======================================================
(PID.TID 0000.0001) // =======================================================
(PID.TID 0000.0001) // Begin OBCS MONITOR field statistics
(PID.TID 0000.0001) // =======================================================
(PID.TID 0000.0001) %MON obc_N_vVel_max               =   8.8967809490790E-08
(PID.TID 0000.0001) %MON obc_N_vVel_min               =   8.8967809490788E-08
(PID.TID 0000.0001) %MON obc_N_vVel_mean              =   8.8967809490790E-08
(PID.TID 0000.0001) %MON obc_N_vVel_sd                =  -4.3702894149244E-28
(PID.TID 0000.0001) %MON obc_N_vVel_Int               =   5.8718754263922E+00
(PID.TID 0000.0001) // =======================================================
(PID.TID 0000.0001) // End OBCS MONITOR field statistics
(PID.TID 0000.0001) // =======================================================
 cg2d: Sum(rhs),rhsMax =   3.00611340502387E+00  4.53039201629498E+02
(PID.TID 0000.0001)      cg2d_init_res =   5.70771897100749E-06
(PID.TID 0000.0001)      cg2d_iters(min,last) =      -1      78
(PID.TID 0000.0001)      cg2d_last_res =   9.31136520666389E-12
(PID.TID 0000.0001) // =======================================================
(PID.TID 0000.0001) // Begin MONITOR dynamic field statistics
(PID.TID 0000.0001) // =======================================================
(PID.TID 0000.0001) %MON time_tsnumber                =                  1442
(PID.TID 0000.0001) %MON time_secondsf                =   1.4420000000000E+05
(PID.TID 0000.0001) %MON dynstat_eta_max              =   5.7994866385262E+00
(PID.TID 0000.0001) %MON dynstat_eta_min              =  -1.4166247834258E+01
(PID.TID 0000.0001) %MON dynstat_eta_mean             =  -2.5220133648514E+00
(PID.TID 0000.0001) %MON dynstat_eta_sd               =   4.9404856978729E+00
(PID.TID 0000.0001) %MON dynstat_eta_del2             =   1.9059391323607E-01
(PID.TID 0000.0001) %MON dynstat_uvel_max             =   1.2411838064498E-02
(PID.TID 0000.0001) %MON dynstat_uvel_min             =  -5.6329319911637E-02
(PID.TID 0000.0001) %MON dynstat_uvel_mean            =   5.2622320548241E-09
(PID.TID 0000.0001) %MON dynstat_uvel_sd              =   1.6308931870814E-03
(PID.TID 0000.0001) %MON dynstat_uvel_del2            =   2.5352776542668E-06
(PID.TID 0000.0001) %MON dynstat_vvel_max             =   3.3364941876842E-02
(PID.TID 0000.0001) %MON dynstat_vvel_min             =  -1.6766683571159E-02
(PID.TID 0000.0001) %MON dynstat_vvel_mean            =   1.4313436566038E-07
(PID.TID 0000.0001) %MON dynstat_vvel_sd              =   7.1672544268763E-04
(PID.TID 0000.0001) %MON dynstat_vvel_del2            =   1.8708765680662E-06
(PID.TID 0000.0001) %MON dynstat_wvel_max             =   2.1673978717974E-03
(PID.TID 0000.0001) %MON dynstat_wvel_min             =  -2.7853214222900E-03
(PID.TID 0000.0001) %MON dynstat_wvel_mean            =   4.7532554257521E-10
(PID.TID 0000.0001) %MON dynstat_wvel_sd              =   3.6365201935102E-05
(PID.TID 0000.0001) %MON dynstat_wvel_del2            =   1.3926053122715E-07
(PID.TID 0000.0001) %MON dynstat_theta_max            =   1.2000000000000E+00
(PID.TID 0000.0001) %MON dynstat_theta_min            =  -1.0000000000000E+00
(PID.TID 0000.0001) %MON dynstat_theta_mean           =   5.6487331890196E-01
(PID.TID 0000.0001) %MON dynstat_theta_sd             =   8.4882396041980E-01
(PID.TID 0000.0001) %MON dynstat_theta_del2           =   5.1645872178709E-06
(PID.TID 0000.0001) %MON dynstat_salt_max             =   3.4700000000000E+01
(PID.TID 0000.0001) %MON dynstat_salt_min             =   3.4000000000000E+01
(PID.TID 0000.0001) %MON dynstat_salt_mean            =   3.4497863424348E+01
(PID.TID 0000.0001) %MON dynstat_salt_sd              =   2.7006909187528E-01
(PID.TID 0000.0001) %MON dynstat_salt_del2            =   2.0461402175007E-06
(PID.TID 0000.0001) %MON advcfl_uvel_max              =   5.6329319911637E-03
(PID.TID 0000.0001) %MON advcfl_vvel_max              =   3.3364941876842E-03
(PID.TID 0000.0001) %MON advcfl_wvel_max              =   1.3926607111450E-02
(PID.TID 0000.0001) %MON advcfl_W_hf_max              =   1.3926607111450E-02
(PID.TID 0000.0001) %MON pe_b_mean                    =  -6.8134712489051E-01
(PID.TID 0000.0001) %MON ke_max                       =   1.4825231563154E-03
(PID.TID 0000.0001) %MON ke_mean                      =   1.5617463769970E-06
(PID.TID 0000.0001) %MON ke_vol                       =   4.6183191798804E+12
(PID.TID 0000.0001) // =======================================================
(PID.TID 0000.0001) // End MONITOR dynamic field statistics
(PID.TID 0000.0001) // =======================================================
(PID.TID 0000.0001) // =======================================================
(PID.TID 0000.0001) // Begin OBCS MONITOR field statistics
(PID.TID 0000.0001) // =======================================================
(PID.TID 0000.0001) %MON obc_N_vVel_max               =   9.0697042135618E-08
(PID.TID 0000.0001) %MON obc_N_vVel_min               =   9.0697042135616E-08
(PID.TID 0000.0001) %MON obc_N_vVel_mean              =   9.0697042135618E-08
(PID.TID 0000.0001) %MON obc_N_vVel_sd                =  -5.5535807727559E-28
(PID.TID 0000.0001) %MON obc_N_vVel_Int               =   5.9860047809508E+00
(PID.TID 0000.0001) // =======================================================
(PID.TID 0000.0001) // End OBCS MONITOR field statistics
(PID.TID 0000.0001) // =======================================================
 cg2d: Sum(rhs),rhsMax =   3.00610133207683E+00  4.53039181458502E+02
(PID.TID 0000.0001)      cg2d_init_res =   5.71708186169596E-06
(PID.TID 0000.0001)      cg2d_iters(min,last) =      -1      78
(PID.TID 0000.0001)      cg2d_last_res =   9.33107313204926E-12
(PID.TID 0000.0001) // =======================================================
(PID.TID 0000.0001) // Begin MONITOR dynamic field statistics
(PID.TID 0000.0001) // =======================================================
(PID.TID 0000.0001) %MON time_tsnumber                =                  1443
(PID.TID 0000.0001) %MON time_secondsf                =   1.4430000000000E+05
(PID.TID 0000.0001) %MON dynstat_eta_max              =   5.7994897829319E+00
(PID.TID 0000.0001) %MON dynstat_eta_min              =  -1.4166224816496E+01
(PID.TID 0000.0001) %MON dynstat_eta_mean             =  -2.5220031238248E+00
(PID.TID 0000.0001) %MON dynstat_eta_sd               =   4.9404827554608E+00
(PID.TID 0000.0001) %MON dynstat_eta_del2             =   1.9059394441244E-01
(PID.TID 0000.0001) %MON dynstat_uvel_max             =   1.2439548593894E-02
(PID.TID 0000.0001) %MON dynstat_uvel_min             =  -5.6453730077077E-02
(PID.TID 0000.0001) %MON dynstat_uvel_mean            =   5.3054981490136E-09
(PID.TID 0000.0001) %MON dynstat_uvel_sd              =   1.6344705304543E-03
(PID.TID 0000.0001) %MON dynstat_uvel_del2            =   2.5411152496003E-06
(PID.TID 0000.0001) %MON dynstat_vvel_max             =   3.3407898728909E-02
(PID.TID 0000.0001) %MON dynstat_vvel_min             =  -1.6809902114584E-02
(PID.TID 0000.0001) %MON dynstat_vvel_mean            =   1.4393018123532E-07
(PID.TID 0000.0001) %MON dynstat_vvel_sd              =   7.1810060741797E-04
(PID.TID 0000.0001) %MON dynstat_vvel_del2            =   1.8741284005221E-06
(PID.TID 0000.0001) %MON dynstat_wvel_max             =   2.1709662018831E-03
(PID.TID 0000.0001) %MON dynstat_wvel_min             =  -2.7891617396816E-03
(PID.TID 0000.0001) %MON dynstat_wvel_mean            =   4.7123426035653E-10
(PID.TID 0000.0001) %MON dynstat_wvel_sd              =   3.6430311617451E-05
(PID.TID 0000.0001) %MON dynstat_wvel_del2            =   1.3945397431508E-07
(PID.TID 0000.0001) %MON dynstat_theta_max            =   1.2000000000000E+00
(PID.TID 0000.0001) %MON dynstat_theta_min            =  -1.0000000000000E+00
(PID.TID 0000.0001) %MON dynstat_theta_mean           =   5.6487217231835E-01
(PID.TID 0000.0001) %MON dynstat_theta_sd             =   8.4882344766579E-01
(PID.TID 0000.0001) %MON dynstat_theta_del2           =   5.1734082185631E-06
(PID.TID 0000.0001) %MON dynstat_salt_max             =   3.4700000000000E+01
(PID.TID 0000.0001) %MON dynstat_salt_min             =   3.4000000000000E+01
(PID.TID 0000.0001) %MON dynstat_salt_mean            =   3.4497862965917E+01
(PID.TID 0000.0001) %MON dynstat_salt_sd              =   2.7006889921131E-01
(PID.TID 0000.0001) %MON dynstat_salt_del2            =   2.0496493334347E-06
(PID.TID 0000.0001) %MON advcfl_uvel_max              =   5.6453730077077E-03
(PID.TID 0000.0001) %MON advcfl_vvel_max              =   3.3407898728909E-03
(PID.TID 0000.0001) %MON advcfl_wvel_max              =   1.3945808698408E-02
(PID.TID 0000.0001) %MON advcfl_W_hf_max              =   1.3945808698408E-02
(PID.TID 0000.0001) %MON pe_b_mean                    =  -6.8134403660253E-01
(PID.TID 0000.0001) %MON ke_max                       =   1.4889126184744E-03
(PID.TID 0000.0001) %MON ke_mean                      =   1.5684637788094E-06
(PID.TID 0000.0001) %MON ke_vol                       =   4.6183192406128E+12
(PID.TID 0000.0001) // =======================================================
(PID.TID 0000.0001) // End MONITOR dynamic field statistics
(PID.TID 0000.0001) // =======================================================
(PID.TID 0000.0001) // =======================================================
(PID.TID 0000.0001) // Begin OBCS MONITOR field statistics
(PID.TID 0000.0001) // =======================================================
(PID.TID 0000.0001) %MON obc_N_vVel_max               =   9.1816086705322E-08
(PID.TID 0000.0001) %MON obc_N_vVel_min               =   9.1816086705321E-08
(PID.TID 0000.0001) %MON obc_N_vVel_mean              =   9.1816086705321E-08
(PID.TID 0000.0001) %MON obc_N_vVel_sd                =  -1.5934990285464E-28
(PID.TID 0000.0001) %MON obc_N_vVel_Int               =   6.0598617225512E+00
(PID.TID 0000.0001) // =======================================================
(PID.TID 0000.0001) // End OBCS MONITOR field statistics
(PID.TID 0000.0001) // =======================================================
 cg2d: Sum(rhs),rhsMax =   3.00608923929934E+00  4.53039161144003E+02
(PID.TID 0000.0001)      cg2d_init_res =   5.72648920022273E-06
(PID.TID 0000.0001)      cg2d_iters(min,last) =      -1      78
(PID.TID 0000.0001)      cg2d_last_res =   9.35097332361715E-12
(PID.TID 0000.0001) // =======================================================
(PID.TID 0000.0001) // Begin MONITOR dynamic field statistics
(PID.TID 0000.0001) // =======================================================
(PID.TID 0000.0001) %MON time_tsnumber                =                  1444
(PID.TID 0000.0001) %MON time_secondsf                =   1.4440000000000E+05
(PID.TID 0000.0001) %MON dynstat_eta_max              =   5.7994929320958E+00
(PID.TID 0000.0001) %MON dynstat_eta_min              =  -1.4166201746054E+01
(PID.TID 0000.0001) %MON dynstat_eta_mean             =  -2.5219928653633E+00
(PID.TID 0000.0001) %MON dynstat_eta_sd               =   4.9404798074737E+00
(PID.TID 0000.0001) %MON dynstat_eta_del2             =   1.9059397564098E-01
(PID.TID 0000.0001) %MON dynstat_uvel_max             =   1.2467292196171E-02
(PID.TID 0000.0001) %MON dynstat_uvel_min             =  -5.6578234838678E-02
(PID.TID 0000.0001) %MON dynstat_uvel_mean            =   5.3491143951607E-09
(PID.TID 0000.0001) %MON dynstat_uvel_sd              =   1.6380537958222E-03
(PID.TID 0000.0001) %MON dynstat_uvel_del2            =   2.5469644415902E-06
(PID.TID 0000.0001) %MON dynstat_vvel_max             =   3.3450859333477E-02
(PID.TID 0000.0001) %MON dynstat_vvel_min             =  -1.6853188224053E-02
(PID.TID 0000.0001) %MON dynstat_vvel_mean            =   1.4407220938873E-07
(PID.TID 0000.0001) %MON dynstat_vvel_sd              =   7.1947788007042E-04
(PID.TID 0000.0001) %MON dynstat_vvel_del2            =   1.8773837402643E-06
(PID.TID 0000.0001) %MON dynstat_wvel_max             =   2.1745358502538E-03
(PID.TID 0000.0001) %MON dynstat_wvel_min             =  -2.7929859935408E-03
(PID.TID 0000.0001) %MON dynstat_wvel_mean            =   4.6723423990818E-10
(PID.TID 0000.0001) %MON dynstat_wvel_sd              =   3.6495515575376E-05
(PID.TID 0000.0001) %MON dynstat_wvel_del2            =   1.3964838694204E-07
(PID.TID 0000.0001) %MON dynstat_theta_max            =   1.2000000000000E+00
(PID.TID 0000.0001) %MON dynstat_theta_min            =  -1.0000000000000E+00
(PID.TID 0000.0001) %MON dynstat_theta_mean           =   5.6487102376279E-01
(PID.TID 0000.0001) %MON dynstat_theta_sd             =   8.4882293412614E-01
(PID.TID 0000.0001) %MON dynstat_theta_del2           =   5.1822403538083E-06
(PID.TID 0000.0001) %MON dynstat_salt_max             =   3.4700000000000E+01
(PID.TID 0000.0001) %MON dynstat_salt_min             =   3.4000000000000E+01
(PID.TID 0000.0001) %MON dynstat_salt_mean            =   3.4497862506695E+01
(PID.TID 0000.0001) %MON dynstat_salt_sd              =   2.7006870626366E-01
(PID.TID 0000.0001) %MON dynstat_salt_del2            =   2.0531621756768E-06
(PID.TID 0000.0001) %MON advcfl_uvel_max              =   5.6578234838678E-03
(PID.TID 0000.0001) %MON advcfl_vvel_max              =   3.3450859333477E-03
(PID.TID 0000.0001) %MON advcfl_wvel_max              =   1.3964929967704E-02
(PID.TID 0000.0001) %MON advcfl_W_hf_max              =   1.3964929967704E-02
(PID.TID 0000.0001) %MON pe_b_mean                    =  -6.8134094284331E-01
(PID.TID 0000.0001) %MON ke_max                       =   1.4953243816875E-03
(PID.TID 0000.0001) %MON ke_mean                      =   1.5752066631052E-06
(PID.TID 0000.0001) %MON ke_vol                       =   4.6183193014445E+12
(PID.TID 0000.0001) // =======================================================
(PID.TID 0000.0001) // End MONITOR dynamic field statistics
(PID.TID 0000.0001) // =======================================================
(PID.TID 0000.0001) // =======================================================
(PID.TID 0000.0001) // Begin OBCS MONITOR field statistics
(PID.TID 0000.0001) // =======================================================
(PID.TID 0000.0001) %MON obc_N_vVel_max               =   9.2314564596058E-08
(PID.TID 0000.0001) %MON obc_N_vVel_min               =   9.2314564596058E-08
(PID.TID 0000.0001) %MON obc_N_vVel_mean              =   9.2314564596058E-08
(PID.TID 0000.0001) %MON obc_N_vVel_sd                =   1.1512108063996E-14
(PID.TID 0000.0001) %MON obc_N_vVel_Int               =   6.0927612633398E+00
(PID.TID 0000.0001) // =======================================================
(PID.TID 0000.0001) // End OBCS MONITOR field statistics
(PID.TID 0000.0001) // =======================================================
 cg2d: Sum(rhs),rhsMax =   3.00607712591800E+00  4.53039140674820E+02
(PID.TID 0000.0001)      cg2d_init_res =   5.73592936284488E-06
(PID.TID 0000.0001)      cg2d_iters(min,last) =      -1      78
(PID.TID 0000.0001)      cg2d_last_res =   9.37107183893860E-12
(PID.TID 0000.0001) // =======================================================
(PID.TID 0000.0001) // Begin MONITOR dynamic field statistics
(PID.TID 0000.0001) // =======================================================
(PID.TID 0000.0001) %MON time_tsnumber                =                  1445
(PID.TID 0000.0001) %MON time_secondsf                =   1.4450000000000E+05
(PID.TID 0000.0001) %MON dynstat_eta_max              =   5.7994960871091E+00
(PID.TID 0000.0001) %MON dynstat_eta_min              =  -1.4166178621502E+01
(PID.TID 0000.0001) %MON dynstat_eta_mean             =  -2.5219825887558E+00
(PID.TID 0000.0001) %MON dynstat_eta_sd               =   4.9404768536889E+00
(PID.TID 0000.0001) %MON dynstat_eta_del2             =   1.9059400692140E-01
(PID.TID 0000.0001) %MON dynstat_uvel_max             =   1.2495068812695E-02
(PID.TID 0000.0001) %MON dynstat_uvel_min             =  -5.6702833931553E-02
(PID.TID 0000.0001) %MON dynstat_uvel_mean            =   5.3924745729674E-09
(PID.TID 0000.0001) %MON dynstat_uvel_sd              =   1.6416429829841E-03
(PID.TID 0000.0001) %MON dynstat_uvel_del2            =   2.5528252449818E-06
(PID.TID 0000.0001) %MON dynstat_vvel_max             =   3.3493823625675E-02
(PID.TID 0000.0001) %MON dynstat_vvel_min             =  -1.6896541624698E-02
(PID.TID 0000.0001) %MON dynstat_vvel_mean            =   1.4357275497390E-07
(PID.TID 0000.0001) %MON dynstat_vvel_sd              =   7.2085725037129E-04
(PID.TID 0000.0001) %MON dynstat_vvel_del2            =   1.8806426005941E-06
(PID.TID 0000.0001) %MON dynstat_wvel_max             =   2.1781067999844E-03
(PID.TID 0000.0001) %MON dynstat_wvel_min             =  -2.7967940360482E-03
(PID.TID 0000.0001) %MON dynstat_wvel_mean            =   4.6342238166689E-10
(PID.TID 0000.0001) %MON dynstat_wvel_sd              =   3.6560797673399E-05
(PID.TID 0000.0001) %MON dynstat_wvel_del2            =   1.3984383923820E-07
(PID.TID 0000.0001) %MON dynstat_theta_max            =   1.2000000000000E+00
(PID.TID 0000.0001) %MON dynstat_theta_min            =  -1.0000000000000E+00
(PID.TID 0000.0001) %MON dynstat_theta_mean           =   5.6486987323153E-01
(PID.TID 0000.0001) %MON dynstat_theta_sd             =   8.4882241980106E-01
(PID.TID 0000.0001) %MON dynstat_theta_del2           =   5.1910821363450E-06
(PID.TID 0000.0001) %MON dynstat_salt_max             =   3.4700000000000E+01
(PID.TID 0000.0001) %MON dynstat_salt_min             =   3.4000000000000E+01
(PID.TID 0000.0001) %MON dynstat_salt_mean            =   3.4497862046680E+01
(PID.TID 0000.0001) %MON dynstat_salt_sd              =   2.7006851303300E-01
(PID.TID 0000.0001) %MON dynstat_salt_del2            =   2.0566789014628E-06
(PID.TID 0000.0001) %MON advcfl_uvel_max              =   5.6702833931553E-03
(PID.TID 0000.0001) %MON advcfl_vvel_max              =   3.3493823625675E-03
(PID.TID 0000.0001) %MON advcfl_wvel_max              =   1.3983970180241E-02
(PID.TID 0000.0001) %MON advcfl_W_hf_max              =   1.3983970180241E-02
(PID.TID 0000.0001) %MON pe_b_mean                    =  -6.8133784346968E-01
(PID.TID 0000.0001) %MON ke_max                       =   1.5017584892724E-03
(PID.TID 0000.0001) %MON ke_mean                      =   1.5819750933292E-06
(PID.TID 0000.0001) %MON ke_vol                       =   4.6183193623797E+12
(PID.TID 0000.0001) // =======================================================
(PID.TID 0000.0001) // End MONITOR dynamic field statistics
(PID.TID 0000.0001) // =======================================================
(PID.TID 0000.0001) // =======================================================
(PID.TID 0000.0001) // Begin OBCS MONITOR field statistics
(PID.TID 0000.0001) // =======================================================
(PID.TID 0000.0001) %MON obc_N_vVel_max               =   9.2195294598677E-08
(PID.TID 0000.0001) %MON obc_N_vVel_min               =   9.2195294598675E-08
(PID.TID 0000.0001) %MON obc_N_vVel_mean              =   9.2195294598675E-08
(PID.TID 0000.0001) %MON obc_N_vVel_sd                =   2.3532538228273E-14
(PID.TID 0000.0001) %MON obc_N_vVel_Int               =   6.0848894435126E+00
(PID.TID 0000.0001) // =======================================================
(PID.TID 0000.0001) // End OBCS MONITOR field statistics
(PID.TID 0000.0001) // =======================================================
 cg2d: Sum(rhs),rhsMax =   3.00606499116389E+00  4.53039120042260E+02
(PID.TID 0000.0001)      cg2d_init_res =   5.74542243038634E-06
(PID.TID 0000.0001)      cg2d_iters(min,last) =      -1      78
(PID.TID 0000.0001)      cg2d_last_res =   9.39135927326116E-12
(PID.TID 0000.0001) // =======================================================
(PID.TID 0000.0001) // Begin MONITOR dynamic field statistics
(PID.TID 0000.0001) // =======================================================
(PID.TID 0000.0001) %MON time_tsnumber                =                  1446
(PID.TID 0000.0001) %MON time_secondsf                =   1.4460000000000E+05
(PID.TID 0000.0001) %MON dynstat_eta_max              =   5.7994992490026E+00
(PID.TID 0000.0001) %MON dynstat_eta_min              =  -1.4166155441446E+01
(PID.TID 0000.0001) %MON dynstat_eta_mean             =  -2.5219722933088E+00
(PID.TID 0000.0001) %MON dynstat_eta_sd               =   4.9404738939060E+00
(PID.TID 0000.0001) %MON dynstat_eta_del2             =   1.9059403825370E-01
(PID.TID 0000.0001) %MON dynstat_uvel_max             =   1.2522878384092E-02
(PID.TID 0000.0001) %MON dynstat_uvel_min             =  -5.6827527095436E-02
(PID.TID 0000.0001) %MON dynstat_uvel_mean            =   5.4349848603511E-09
(PID.TID 0000.0001) %MON dynstat_uvel_sd              =   1.6452380917237E-03
(PID.TID 0000.0001) %MON dynstat_uvel_del2            =   2.5586976744500E-06
(PID.TID 0000.0001) %MON dynstat_vvel_max             =   3.3536791544365E-02
(PID.TID 0000.0001) %MON dynstat_vvel_min             =  -1.6939962030978E-02
(PID.TID 0000.0001) %MON dynstat_vvel_mean            =   1.4245752031848E-07
(PID.TID 0000.0001) %MON dynstat_vvel_sd              =   7.2223870684425E-04
(PID.TID 0000.0001) %MON dynstat_vvel_del2            =   1.8839049748503E-06
(PID.TID 0000.0001) %MON dynstat_wvel_max             =   2.1816790343345E-03
(PID.TID 0000.0001) %MON dynstat_wvel_min             =  -2.8005857196647E-03
(PID.TID 0000.0001) %MON dynstat_wvel_mean            =   4.5989032083435E-10
(PID.TID 0000.0001) %MON dynstat_wvel_sd              =   3.6626131232259E-05
(PID.TID 0000.0001) %MON dynstat_wvel_del2            =   1.4004029939467E-07
(PID.TID 0000.0001) %MON dynstat_theta_max            =   1.2000000000000E+00
(PID.TID 0000.0001) %MON dynstat_theta_min            =  -1.0000000000000E+00
(PID.TID 0000.0001) %MON dynstat_theta_mean           =   5.6486872072084E-01
(PID.TID 0000.0001) %MON dynstat_theta_sd             =   8.4882190469020E-01
(PID.TID 0000.0001) %MON dynstat_theta_del2           =   5.1999336650131E-06
(PID.TID 0000.0001) %MON dynstat_salt_max             =   3.4700000000000E+01
(PID.TID 0000.0001) %MON dynstat_salt_min             =   3.4000000000000E+01
(PID.TID 0000.0001) %MON dynstat_salt_mean            =   3.4497861585872E+01
(PID.TID 0000.0001) %MON dynstat_salt_sd              =   2.7006831951946E-01
(PID.TID 0000.0001) %MON dynstat_salt_del2            =   2.0601995347688E-06
(PID.TID 0000.0001) %MON advcfl_uvel_max              =   5.6827527095436E-03
(PID.TID 0000.0001) %MON advcfl_vvel_max              =   3.3536791544365E-03
(PID.TID 0000.0001) %MON advcfl_wvel_max              =   1.4002928598323E-02
(PID.TID 0000.0001) %MON advcfl_W_hf_max              =   1.4002928598323E-02
(PID.TID 0000.0001) %MON pe_b_mean                    =  -6.8133473834479E-01
(PID.TID 0000.0001) %MON ke_max                       =   1.5082149841392E-03
(PID.TID 0000.0001) %MON ke_mean                      =   1.5887691320938E-06
(PID.TID 0000.0001) %MON ke_vol                       =   4.6183194234228E+12
(PID.TID 0000.0001) // =======================================================
(PID.TID 0000.0001) // End MONITOR dynamic field statistics
(PID.TID 0000.0001) // =======================================================
(PID.TID 0000.0001) // =======================================================
(PID.TID 0000.0001) // Begin OBCS MONITOR field statistics
(PID.TID 0000.0001) // =======================================================
(PID.TID 0000.0001) %MON obc_N_vVel_max               =   9.1474096992934E-08
(PID.TID 0000.0001) %MON obc_N_vVel_min               =   9.1474096992933E-08
(PID.TID 0000.0001) %MON obc_N_vVel_mean              =   9.1474096992933E-08
(PID.TID 0000.0001) %MON obc_N_vVel_sd                =   2.2363761175395E-14
(PID.TID 0000.0001) %MON obc_N_vVel_Int               =   6.0372904015336E+00
(PID.TID 0000.0001) // =======================================================
(PID.TID 0000.0001) // End OBCS MONITOR field statistics
(PID.TID 0000.0001) // =======================================================
 cg2d: Sum(rhs),rhsMax =   3.00605283428893E+00  4.53039099240299E+02
(PID.TID 0000.0001)      cg2d_init_res =   5.75495021655432E-06
(PID.TID 0000.0001)      cg2d_iters(min,last) =      -1      78
(PID.TID 0000.0001)      cg2d_last_res =   9.41184409230623E-12
(PID.TID 0000.0001) // =======================================================
(PID.TID 0000.0001) // Begin MONITOR dynamic field statistics
(PID.TID 0000.0001) // =======================================================
(PID.TID 0000.0001) %MON time_tsnumber                =                  1447
(PID.TID 0000.0001) %MON time_secondsf                =   1.4470000000000E+05
(PID.TID 0000.0001) %MON dynstat_eta_max              =   5.7995024187415E+00
(PID.TID 0000.0001) %MON dynstat_eta_min              =  -1.4166132204604E+01
(PID.TID 0000.0001) %MON dynstat_eta_mean             =  -2.5219619783611E+00
(PID.TID 0000.0001) %MON dynstat_eta_sd               =   4.9404709279434E+00
(PID.TID 0000.0001) %MON dynstat_eta_del2             =   1.9059406963779E-01
(PID.TID 0000.0001) %MON dynstat_uvel_max             =   1.2550720850251E-02
(PID.TID 0000.0001) %MON dynstat_uvel_min             =  -5.6952314074842E-02
(PID.TID 0000.0001) %MON dynstat_uvel_mean            =   5.4760786779272E-09
(PID.TID 0000.0001) %MON dynstat_uvel_sd              =   1.6488391217368E-03
(PID.TID 0000.0001) %MON dynstat_uvel_del2            =   2.5645817447121E-06
(PID.TID 0000.0001) %MON dynstat_vvel_max             =   3.3579763030658E-02
(PID.TID 0000.0001) %MON dynstat_vvel_min             =  -1.6983449146876E-02
(PID.TID 0000.0001) %MON dynstat_vvel_mean            =   1.4076498091135E-07
(PID.TID 0000.0001) %MON dynstat_vvel_sd              =   7.2362223763851E-04
(PID.TID 0000.0001) %MON dynstat_vvel_del2            =   1.8871708382145E-06
(PID.TID 0000.0001) %MON dynstat_wvel_max             =   2.1852525365505E-03
(PID.TID 0000.0001) %MON dynstat_wvel_min             =  -2.8043608972033E-03
(PID.TID 0000.0001) %MON dynstat_wvel_mean            =   4.5672398202288E-10
(PID.TID 0000.0001) %MON dynstat_wvel_sd              =   3.6691479858365E-05
(PID.TID 0000.0001) %MON dynstat_wvel_del2            =   1.4023763433651E-07
(PID.TID 0000.0001) %MON dynstat_theta_max            =   1.2000000000000E+00
(PID.TID 0000.0001) %MON dynstat_theta_min            =  -1.0000000000000E+00
(PID.TID 0000.0001) %MON dynstat_theta_mean           =   5.6486756622704E-01
(PID.TID 0000.0001) %MON dynstat_theta_sd             =   8.4882138879348E-01
(PID.TID 0000.0001) %MON dynstat_theta_del2           =   5.2087950254805E-06
(PID.TID 0000.0001) %MON dynstat_salt_max             =   3.4700000000000E+01
(PID.TID 0000.0001) %MON dynstat_salt_min             =   3.4000000000000E+01
(PID.TID 0000.0001) %MON dynstat_salt_mean            =   3.4497861124268E+01
(PID.TID 0000.0001) %MON dynstat_salt_sd              =   2.7006812572289E-01
(PID.TID 0000.0001) %MON dynstat_salt_del2            =   2.0637241047738E-06
(PID.TID 0000.0001) %MON advcfl_uvel_max              =   5.6952314074842E-03
(PID.TID 0000.0001) %MON advcfl_vvel_max              =   3.3579763030658E-03
(PID.TID 0000.0001) %MON advcfl_wvel_max              =   1.4021804486017E-02
(PID.TID 0000.0001) %MON advcfl_W_hf_max              =   1.4021804486017E-02
(PID.TID 0000.0001) %MON pe_b_mean                    =  -6.8133162734086E-01
(PID.TID 0000.0001) %MON ke_max                       =   1.5146939087687E-03
(PID.TID 0000.0001) %MON ke_mean                      =   1.5955888416500E-06
(PID.TID 0000.0001) %MON ke_vol                       =   4.6183194845777E+12
(PID.TID 0000.0001) // =======================================================
(PID.TID 0000.0001) // End MONITOR dynamic field statistics
(PID.TID 0000.0001) // =======================================================
(PID.TID 0000.0001) // =======================================================
(PID.TID 0000.0001) // Begin OBCS MONITOR field statistics
(PID.TID 0000.0001) // =======================================================
(PID.TID 0000.0001) %MON obc_N_vVel_max               =   9.0179352807035E-08
(PID.TID 0000.0001) %MON obc_N_vVel_min               =   9.0179352807034E-08
(PID.TID 0000.0001) %MON obc_N_vVel_mean              =   9.0179352807035E-08
(PID.TID 0000.0001) %MON obc_N_vVel_sd                =  -4.5596160321774E-28
(PID.TID 0000.0001) %MON obc_N_vVel_Int               =   5.9518372852643E+00
(PID.TID 0000.0001) // =======================================================
(PID.TID 0000.0001) // End OBCS MONITOR field statistics
(PID.TID 0000.0001) // =======================================================
 cg2d: Sum(rhs),rhsMax =   3.00604065457992E+00  4.53039078265657E+02
(PID.TID 0000.0001)      cg2d_init_res =   5.76450572552020E-06
(PID.TID 0000.0001)      cg2d_iters(min,last) =      -1      78
(PID.TID 0000.0001)      cg2d_last_res =   9.43251377421420E-12
(PID.TID 0000.0001) // =======================================================
(PID.TID 0000.0001) // Begin MONITOR dynamic field statistics
(PID.TID 0000.0001) // =======================================================
(PID.TID 0000.0001) %MON time_tsnumber                =                  1448
(PID.TID 0000.0001) %MON time_secondsf                =   1.4480000000000E+05
(PID.TID 0000.0001) %MON dynstat_eta_max              =   5.7995055971968E+00
(PID.TID 0000.0001) %MON dynstat_eta_min              =  -1.4166108909794E+01
(PID.TID 0000.0001) %MON dynstat_eta_mean             =  -2.5219516432963E+00
(PID.TID 0000.0001) %MON dynstat_eta_sd               =   4.9404679556435E+00
(PID.TID 0000.0001) %MON dynstat_eta_del2             =   1.9059410107366E-01
(PID.TID 0000.0001) %MON dynstat_uvel_max             =   1.2578596150354E-02
(PID.TID 0000.0001) %MON dynstat_uvel_min             =  -5.7077194618696E-02
(PID.TID 0000.0001) %MON dynstat_uvel_mean            =   5.5152245530958E-09
(PID.TID 0000.0001) %MON dynstat_uvel_sd              =   1.6524460726283E-03
(PID.TID 0000.0001) %MON dynstat_uvel_del2            =   2.5704774704520E-06
(PID.TID 0000.0001) %MON dynstat_vvel_max             =   3.3622738026678E-02
(PID.TID 0000.0001) %MON dynstat_vvel_min             =  -1.7027002665875E-02
(PID.TID 0000.0001) %MON dynstat_vvel_mean            =   1.3854545872176E-07
(PID.TID 0000.0001) %MON dynstat_vvel_sd              =   7.2500783105987E-04
(PID.TID 0000.0001) %MON dynstat_vvel_del2            =   1.8904401503344E-06
(PID.TID 0000.0001) %MON dynstat_wvel_max             =   2.1888272892832E-03
(PID.TID 0000.0001) %MON dynstat_wvel_min             =  -2.8081194217232E-03
(PID.TID 0000.0001) %MON dynstat_wvel_mean            =   4.5400067558805E-10
(PID.TID 0000.0001) %MON dynstat_wvel_sd              =   3.6756799280045E-05
(PID.TID 0000.0001) %MON dynstat_wvel_del2            =   1.4043561876599E-07
(PID.TID 0000.0001) %MON dynstat_theta_max            =   1.2000000000000E+00
(PID.TID 0000.0001) %MON dynstat_theta_min            =  -1.0000000000000E+00
(PID.TID 0000.0001) %MON dynstat_theta_mean           =   5.6486640974650E-01
(PID.TID 0000.0001) %MON dynstat_theta_sd             =   8.4882087211106E-01
(PID.TID 0000.0001) %MON dynstat_theta_del2           =   5.2176663454029E-06
(PID.TID 0000.0001) %MON dynstat_salt_max             =   3.4700000000000E+01
(PID.TID 0000.0001) %MON dynstat_salt_min             =   3.4000000000000E+01
(PID.TID 0000.0001) %MON dynstat_salt_mean            =   3.4497860661868E+01
(PID.TID 0000.0001) %MON dynstat_salt_sd              =   2.7006793164351E-01
(PID.TID 0000.0001) %MON dynstat_salt_del2            =   2.0672526467913E-06
(PID.TID 0000.0001) %MON advcfl_uvel_max              =   5.7077194618696E-03
(PID.TID 0000.0001) %MON advcfl_vvel_max              =   3.3622738026678E-03
(PID.TID 0000.0001) %MON advcfl_wvel_max              =   1.4040597108616E-02
(PID.TID 0000.0001) %MON advcfl_W_hf_max              =   1.4040597108616E-02
(PID.TID 0000.0001) %MON pe_b_mean                    =  -6.8132851034149E-01
(PID.TID 0000.0001) %MON ke_max                       =   1.5211953052064E-03
(PID.TID 0000.0001) %MON ke_mean                      =   1.6024342842638E-06
(PID.TID 0000.0001) %MON ke_vol                       =   4.6183195458485E+12
(PID.TID 0000.0001) // =======================================================
(PID.TID 0000.0001) // End MONITOR dynamic field statistics
(PID.TID 0000.0001) // =======================================================
(PID.TID 0000.0001) // =======================================================
(PID.TID 0000.0001) // Begin OBCS MONITOR field statistics
(PID.TID 0000.0001) // =======================================================
(PID.TID 0000.0001) %MON obc_N_vVel_max               =   8.8351298955034E-08
(PID.TID 0000.0001) %MON obc_N_vVel_min               =   8.8351298955031E-08
(PID.TID 0000.0001) %MON obc_N_vVel_mean              =   8.8351298955034E-08
(PID.TID 0000.0001) %MON obc_N_vVel_sd                =  -6.7684265667963E-28
(PID.TID 0000.0001) %MON obc_N_vVel_Int               =   5.8311857310323E+00
(PID.TID 0000.0001) // =======================================================
(PID.TID 0000.0001) // End OBCS MONITOR field statistics
(PID.TID 0000.0001) // =======================================================
 cg2d: Sum(rhs),rhsMax =   3.00602845137230E+00  4.53039057117838E+02
(PID.TID 0000.0001)      cg2d_init_res =   5.77408133117519E-06
(PID.TID 0000.0001)      cg2d_iters(min,last) =      -1      78
(PID.TID 0000.0001)      cg2d_last_res =   9.45336535560459E-12
(PID.TID 0000.0001) // =======================================================
(PID.TID 0000.0001) // Begin MONITOR dynamic field statistics
(PID.TID 0000.0001) // =======================================================
(PID.TID 0000.0001) %MON time_tsnumber                =                  1449
(PID.TID 0000.0001) %MON time_secondsf                =   1.4490000000000E+05
(PID.TID 0000.0001) %MON dynstat_eta_max              =   5.7995087851349E+00
(PID.TID 0000.0001) %MON dynstat_eta_min              =  -1.4166085555957E+01
(PID.TID 0000.0001) %MON dynstat_eta_mean             =  -2.5219412875539E+00
(PID.TID 0000.0001) %MON dynstat_eta_sd               =   4.9404649768784E+00
(PID.TID 0000.0001) %MON dynstat_eta_del2             =   1.9059413256140E-01
(PID.TID 0000.0001) %MON dynstat_uvel_max             =   1.2606504223019E-02
(PID.TID 0000.0001) %MON dynstat_uvel_min             =  -5.7202168480558E-02
(PID.TID 0000.0001) %MON dynstat_uvel_mean            =   5.5519384943014E-09
(PID.TID 0000.0001) %MON dynstat_uvel_sd              =   1.6560589439108E-03
(PID.TID 0000.0001) %MON dynstat_uvel_del2            =   2.5763848663543E-06
(PID.TID 0000.0001) %MON dynstat_vvel_max             =   3.3665716474937E-02
(PID.TID 0000.0001) %MON dynstat_vvel_min             =  -1.7070622271143E-02
(PID.TID 0000.0001) %MON dynstat_vvel_mean            =   1.3585995220330E-07
(PID.TID 0000.0001) %MON dynstat_vvel_sd              =   7.2639547620804E-04
(PID.TID 0000.0001) %MON dynstat_vvel_del2            =   1.8937128594570E-06
(PID.TID 0000.0001) %MON dynstat_wvel_max             =   2.1924032753596E-03
(PID.TID 0000.0001) %MON dynstat_wvel_min             =  -2.8118611466792E-03
(PID.TID 0000.0001) %MON dynstat_wvel_mean            =   4.5178767704220E-10
(PID.TID 0000.0001) %MON dynstat_wvel_sd              =   3.6822040090480E-05
(PID.TID 0000.0001) %MON dynstat_wvel_del2            =   1.4063395216327E-07
(PID.TID 0000.0001) %MON dynstat_theta_max            =   1.2000000000000E+00
(PID.TID 0000.0001) %MON dynstat_theta_min            =  -1.0000000000000E+00
(PID.TID 0000.0001) %MON dynstat_theta_mean           =   5.6486525127553E-01
(PID.TID 0000.0001) %MON dynstat_theta_sd             =   8.4882035464210E-01
(PID.TID 0000.0001) %MON dynstat_theta_del2           =   5.2265477577665E-06
(PID.TID 0000.0001) %MON dynstat_salt_max             =   3.4700000000000E+01
(PID.TID 0000.0001) %MON dynstat_salt_min             =   3.4000000000000E+01
(PID.TID 0000.0001) %MON dynstat_salt_mean            =   3.4497860198669E+01
(PID.TID 0000.0001) %MON dynstat_salt_sd              =   2.7006773728121E-01
(PID.TID 0000.0001) %MON dynstat_salt_del2            =   2.0707851946393E-06
(PID.TID 0000.0001) %MON advcfl_uvel_max              =   5.7202168480558E-03
(PID.TID 0000.0001) %MON advcfl_vvel_max              =   3.3665716474937E-03
(PID.TID 0000.0001) %MON advcfl_wvel_max              =   1.4059305733396E-02
(PID.TID 0000.0001) %MON advcfl_W_hf_max              =   1.4059305733396E-02
(PID.TID 0000.0001) %MON pe_b_mean                    =  -6.8132538724395E-01
(PID.TID 0000.0001) %MON ke_max                       =   1.5277192150419E-03
(PID.TID 0000.0001) %MON ke_mean                      =   1.6093055226754E-06
(PID.TID 0000.0001) %MON ke_vol                       =   4.6183196072388E+12
(PID.TID 0000.0001) // =======================================================
(PID.TID 0000.0001) // End MONITOR dynamic field statistics
(PID.TID 0000.0001) // =======================================================
(PID.TID 0000.0001) // =======================================================
(PID.TID 0000.0001) // Begin OBCS MONITOR field statistics
(PID.TID 0000.0001) // =======================================================
(PID.TID 0000.0001) %MON obc_N_vVel_max               =   8.6041061663367E-08
(PID.TID 0000.0001) %MON obc_N_vVel_min               =   8.6041061663366E-08
(PID.TID 0000.0001) %MON obc_N_vVel_mean              =   8.6041061663367E-08
(PID.TID 0000.0001) %MON obc_N_vVel_sd                =  -3.3289930200327E-28
(PID.TID 0000.0001) %MON obc_N_vVel_Int               =   5.6787100697822E+00
(PID.TID 0000.0001) // =======================================================
(PID.TID 0000.0001) // End OBCS MONITOR field statistics
(PID.TID 0000.0001) // =======================================================
 cg2d: Sum(rhs),rhsMax =   3.00601622406391E+00  4.53039035799128E+02
(PID.TID 0000.0001)      cg2d_init_res =   5.78366873385562E-06
(PID.TID 0000.0001)      cg2d_iters(min,last) =      -1      78
(PID.TID 0000.0001)      cg2d_last_res =   9.47439270762616E-12
(PID.TID 0000.0001) // =======================================================
(PID.TID 0000.0001) // Begin MONITOR dynamic field statistics
(PID.TID 0000.0001) // =======================================================
(PID.TID 0000.0001) %MON time_tsnumber                =                  1450
(PID.TID 0000.0001) %MON time_secondsf                =   1.4500000000000E+05
(PID.TID 0000.0001) %MON dynstat_eta_max              =   5.7995119831880E+00
(PID.TID 0000.0001) %MON dynstat_eta_min              =  -1.4166062142191E+01
(PID.TID 0000.0001) %MON dynstat_eta_mean             =  -2.5219309106416E+00
(PID.TID 0000.0001) %MON dynstat_eta_sd               =   4.9404619915497E+00
(PID.TID 0000.0001) %MON dynstat_eta_del2             =   1.9059416410114E-01
(PID.TID 0000.0001) %MON dynstat_uvel_max             =   1.2634445006263E-02
(PID.TID 0000.0001) %MON dynstat_uvel_min             =  -5.7327235418377E-02
(PID.TID 0000.0001) %MON dynstat_uvel_mean            =   5.5857959336217E-09
(PID.TID 0000.0001) %MON dynstat_uvel_sd              =   1.6596777350062E-03
(PID.TID 0000.0001) %MON dynstat_uvel_del2            =   2.5823039471319E-06
(PID.TID 0000.0001) %MON dynstat_vvel_max             =   3.3708698318338E-02
(PID.TID 0000.0001) %MON dynstat_vvel_min             =  -1.7114307635792E-02
(PID.TID 0000.0001) %MON dynstat_vvel_mean            =   1.3277875480981E-07
(PID.TID 0000.0001) %MON dynstat_vvel_sd              =   7.2778516368906E-04
(PID.TID 0000.0001) %MON dynstat_vvel_del2            =   1.8969889077781E-06
(PID.TID 0000.0001) %MON dynstat_wvel_max             =   2.1959804775156E-03
(PID.TID 0000.0001) %MON dynstat_wvel_min             =  -2.8155859257740E-03
(PID.TID 0000.0001) %MON dynstat_wvel_mean            =   4.5014104146539E-10
(PID.TID 0000.0001) %MON dynstat_wvel_sd              =   3.6887151182152E-05
(PID.TID 0000.0001) %MON dynstat_wvel_del2            =   1.4083228220059E-07
(PID.TID 0000.0001) %MON dynstat_theta_max            =   1.2000000000000E+00
(PID.TID 0000.0001) %MON dynstat_theta_min            =  -1.0000000000000E+00
(PID.TID 0000.0001) %MON dynstat_theta_mean           =   5.6486409081050E-01
(PID.TID 0000.0001) %MON dynstat_theta_sd             =   8.4881983638609E-01
(PID.TID 0000.0001) %MON dynstat_theta_del2           =   5.2354394004598E-06
(PID.TID 0000.0001) %MON dynstat_salt_max             =   3.4700000000000E+01
(PID.TID 0000.0001) %MON dynstat_salt_min             =   3.4000000000000E+01
(PID.TID 0000.0001) %MON dynstat_salt_mean            =   3.4497859734671E+01
(PID.TID 0000.0001) %MON dynstat_salt_sd              =   2.7006754263591E-01
(PID.TID 0000.0001) %MON dynstat_salt_del2            =   2.0743220089335E-06
(PID.TID 0000.0001) %MON advcfl_uvel_max              =   5.7327235418377E-03
(PID.TID 0000.0001) %MON advcfl_vvel_max              =   3.3708698318338E-03
(PID.TID 0000.0001) %MON advcfl_wvel_max              =   1.4077929628870E-02
(PID.TID 0000.0001) %MON advcfl_W_hf_max              =   1.4077929628870E-02
(PID.TID 0000.0001) %MON pe_b_mean                    =  -6.8132225796103E-01
(PID.TID 0000.0001) %MON ke_max                       =   1.5342656793877E-03
(PID.TID 0000.0001) %MON ke_mean                      =   1.6162026206230E-06
(PID.TID 0000.0001) %MON ke_vol                       =   4.6183196687519E+12
(PID.TID 0000.0001) // =======================================================
(PID.TID 0000.0001) // End MONITOR dynamic field statistics
(PID.TID 0000.0001) // =======================================================
(PID.TID 0000.0001) // =======================================================
(PID.TID 0000.0001) // Begin OBCS MONITOR field statistics
(PID.TID 0000.0001) // =======================================================
(PID.TID 0000.0001) %MON obc_N_vVel_max               =   8.3309476529194E-08
(PID.TID 0000.0001) %MON obc_N_vVel_min               =   8.3309476529192E-08
(PID.TID 0000.0001) %MON obc_N_vVel_mean              =   8.3309476529192E-08
(PID.TID 0000.0001) %MON obc_N_vVel_sd                =   1.9214237003936E-14
(PID.TID 0000.0001) %MON obc_N_vVel_Int               =   5.4984254509267E+00
(PID.TID 0000.0001) // =======================================================
(PID.TID 0000.0001) // End OBCS MONITOR field statistics
(PID.TID 0000.0001) // =======================================================
 cg2d: Sum(rhs),rhsMax =   3.00600397212691E+00  4.53039014314500E+02
(PID.TID 0000.0001)      cg2d_init_res =   5.79327234985019E-06
(PID.TID 0000.0001)      cg2d_iters(min,last) =      -1      78
(PID.TID 0000.0001)      cg2d_last_res =   9.49556643100616E-12
(PID.TID 0000.0001) // =======================================================
(PID.TID 0000.0001) // Begin MONITOR dynamic field statistics
(PID.TID 0000.0001) // =======================================================
(PID.TID 0000.0001) %MON time_tsnumber                =                  1451
(PID.TID 0000.0001) %MON time_secondsf                =   1.4510000000000E+05
(PID.TID 0000.0001) %MON dynstat_eta_max              =   5.7995151918439E+00
(PID.TID 0000.0001) %MON dynstat_eta_min              =  -1.4166038667754E+01
(PID.TID 0000.0001) %MON dynstat_eta_mean             =  -2.5219205121442E+00
(PID.TID 0000.0001) %MON dynstat_eta_sd               =   4.9404589995921E+00
(PID.TID 0000.0001) %MON dynstat_eta_del2             =   1.9059419569315E-01
(PID.TID 0000.0001) %MON dynstat_uvel_max             =   1.2662418437609E-02
(PID.TID 0000.0001) %MON dynstat_uvel_min             =  -5.7452395194581E-02
(PID.TID 0000.0001) %MON dynstat_uvel_mean            =   5.6164388973578E-09
(PID.TID 0000.0001) %MON dynstat_uvel_sd              =   1.6633024452368E-03
(PID.TID 0000.0001) %MON dynstat_uvel_del2            =   2.5882347273599E-06
(PID.TID 0000.0001) %MON dynstat_vvel_max             =   3.3751683500024E-02
(PID.TID 0000.0001) %MON dynstat_vvel_min             =  -1.7158058422968E-02
(PID.TID 0000.0001) %MON dynstat_vvel_mean            =   1.2937988240132E-07
(PID.TID 0000.0001) %MON dynstat_vvel_sd              =   7.2917688633795E-04
(PID.TID 0000.0001) %MON dynstat_vvel_del2            =   1.9002682378633E-06
(PID.TID 0000.0001) %MON dynstat_wvel_max             =   2.1995588783536E-03
(PID.TID 0000.0001) %MON dynstat_wvel_min             =  -2.8192936130522E-03
(PID.TID 0000.0001) %MON dynstat_wvel_mean            =   4.4910398653942E-10
(PID.TID 0000.0001) %MON dynstat_wvel_sd              =   3.6952083600464E-05
(PID.TID 0000.0001) %MON dynstat_wvel_del2            =   1.4103023256047E-07
(PID.TID 0000.0001) %MON dynstat_theta_max            =   1.2000000000000E+00
(PID.TID 0000.0001) %MON dynstat_theta_min            =  -1.0000000000000E+00
(PID.TID 0000.0001) %MON dynstat_theta_mean           =   5.6486292834786E-01
(PID.TID 0000.0001) %MON dynstat_theta_sd             =   8.4881931734312E-01
(PID.TID 0000.0001) %MON dynstat_theta_del2           =   5.2443412884011E-06
(PID.TID 0000.0001) %MON dynstat_salt_max             =   3.4700000000000E+01
(PID.TID 0000.0001) %MON dynstat_salt_min             =   3.4000000000000E+01
(PID.TID 0000.0001) %MON dynstat_salt_mean            =   3.4497859269872E+01
(PID.TID 0000.0001) %MON dynstat_salt_sd              =   2.7006734770802E-01
(PID.TID 0000.0001) %MON dynstat_salt_del2            =   2.0778634905526E-06
(PID.TID 0000.0001) %MON advcfl_uvel_max              =   5.7452395194581E-03
(PID.TID 0000.0001) %MON advcfl_vvel_max              =   3.3751683500024E-03
(PID.TID 0000.0001) %MON advcfl_wvel_max              =   1.4096468065261E-02
(PID.TID 0000.0001) %MON advcfl_W_hf_max              =   1.4096468065261E-02
(PID.TID 0000.0001) %MON pe_b_mean                    =  -6.8131912242268E-01
(PID.TID 0000.0001) %MON ke_max                       =   1.5408347388656E-03
(PID.TID 0000.0001) %MON ke_mean                      =   1.6231256433642E-06
(PID.TID 0000.0001) %MON ke_vol                       =   4.6183197303908E+12
(PID.TID 0000.0001) // =======================================================
(PID.TID 0000.0001) // End MONITOR dynamic field statistics
(PID.TID 0000.0001) // =======================================================
(PID.TID 0000.0001) // =======================================================
(PID.TID 0000.0001) // Begin OBCS MONITOR field statistics
(PID.TID 0000.0001) // =======================================================
(PID.TID 0000.0001) %MON obc_N_vVel_max               =   8.0225739209758E-08
(PID.TID 0000.0001) %MON obc_N_vVel_min               =   8.0225739209756E-08
(PID.TID 0000.0001) %MON obc_N_vVel_mean              =   8.0225739209758E-08
(PID.TID 0000.0001) %MON obc_N_vVel_sd                =  -6.2951100236637E-28
(PID.TID 0000.0001) %MON obc_N_vVel_Int               =   5.2948987878441E+00
(PID.TID 0000.0001) // =======================================================
(PID.TID 0000.0001) // End OBCS MONITOR field statistics
(PID.TID 0000.0001) // =======================================================
 cg2d: Sum(rhs),rhsMax =   3.00599169511608E+00  4.53038992671506E+02
(PID.TID 0000.0001)      cg2d_init_res =   5.80289955326158E-06
(PID.TID 0000.0001)      cg2d_iters(min,last) =      -1      78
(PID.TID 0000.0001)      cg2d_last_res =   9.51690505086665E-12
(PID.TID 0000.0001) // =======================================================
(PID.TID 0000.0001) // Begin MONITOR dynamic field statistics
(PID.TID 0000.0001) // =======================================================
(PID.TID 0000.0001) %MON time_tsnumber                =                  1452
(PID.TID 0000.0001) %MON time_secondsf                =   1.4520000000000E+05
(PID.TID 0000.0001) %MON dynstat_eta_max              =   5.7995184114520E+00
(PID.TID 0000.0001) %MON dynstat_eta_min              =  -1.4166015132090E+01
(PID.TID 0000.0001) %MON dynstat_eta_mean             =  -2.5219100917302E+00
(PID.TID 0000.0001) %MON dynstat_eta_sd               =   4.9404560009739E+00
(PID.TID 0000.0001) %MON dynstat_eta_del2             =   1.9059422733784E-01
(PID.TID 0000.0001) %MON dynstat_uvel_max             =   1.2690424453859E-02
(PID.TID 0000.0001) %MON dynstat_uvel_min             =  -5.7577647576100E-02
(PID.TID 0000.0001) %MON dynstat_uvel_mean            =   5.6435838935892E-09
(PID.TID 0000.0001) %MON dynstat_uvel_sd              =   1.6669330738006E-03
(PID.TID 0000.0001) %MON dynstat_uvel_del2            =   2.5941772204406E-06
(PID.TID 0000.0001) %MON dynstat_vvel_max             =   3.3794671963181E-02
(PID.TID 0000.0001) %MON dynstat_vvel_min             =  -1.7201874286092E-02
(PID.TID 0000.0001) %MON dynstat_vvel_mean            =   1.2574734548807E-07
(PID.TID 0000.0001) %MON dynstat_vvel_sd              =   7.3057063997466E-04
(PID.TID 0000.0001) %MON dynstat_vvel_del2            =   1.9035507995266E-06
(PID.TID 0000.0001) %MON dynstat_wvel_max             =   2.2031384603791E-03
(PID.TID 0000.0001) %MON dynstat_wvel_min             =  -2.8229840628439E-03
(PID.TID 0000.0001) %MON dynstat_wvel_mean            =   4.4870671269518E-10
(PID.TID 0000.0001) %MON dynstat_wvel_sd              =   3.7016794450635E-05
(PID.TID 0000.0001) %MON dynstat_wvel_del2            =   1.4122743186143E-07
(PID.TID 0000.0001) %MON dynstat_theta_max            =   1.2000000000000E+00
(PID.TID 0000.0001) %MON dynstat_theta_min            =  -1.0000000000000E+00
(PID.TID 0000.0001) %MON dynstat_theta_mean           =   5.6486176388406E-01
(PID.TID 0000.0001) %MON dynstat_theta_sd             =   8.4881879751355E-01
(PID.TID 0000.0001) %MON dynstat_theta_del2           =   5.2532536526378E-06
(PID.TID 0000.0001) %MON dynstat_salt_max             =   3.4700000000000E+01
(PID.TID 0000.0001) %MON dynstat_salt_min             =   3.4000000000000E+01
(PID.TID 0000.0001) %MON dynstat_salt_mean            =   3.4497858804271E+01
(PID.TID 0000.0001) %MON dynstat_salt_sd              =   2.7006715249743E-01
(PID.TID 0000.0001) %MON dynstat_salt_del2            =   2.0814090834671E-06
(PID.TID 0000.0001) %MON advcfl_uvel_max              =   5.7577647576100E-03
(PID.TID 0000.0001) %MON advcfl_vvel_max              =   3.3794671963181E-03
(PID.TID 0000.0001) %MON advcfl_wvel_max              =   1.4114920314219E-02
(PID.TID 0000.0001) %MON advcfl_W_hf_max              =   1.4114920314219E-02
(PID.TID 0000.0001) %MON pe_b_mean                    =  -6.8131598057691E-01
(PID.TID 0000.0001) %MON ke_max                       =   1.5474264335661E-03
(PID.TID 0000.0001) %MON ke_mean                      =   1.6300746581999E-06
(PID.TID 0000.0001) %MON ke_vol                       =   4.6183197921579E+12
(PID.TID 0000.0001) // =======================================================
(PID.TID 0000.0001) // End MONITOR dynamic field statistics
(PID.TID 0000.0001) // =======================================================
(PID.TID 0000.0001) // =======================================================
(PID.TID 0000.0001) // Begin OBCS MONITOR field statistics
(PID.TID 0000.0001) // =======================================================
(PID.TID 0000.0001) %MON obc_N_vVel_max               =   7.6865828154063E-08
(PID.TID 0000.0001) %MON obc_N_vVel_min               =   7.6865828154061E-08
(PID.TID 0000.0001) %MON obc_N_vVel_mean              =   7.6865828154063E-08
(PID.TID 0000.0001) %MON obc_N_vVel_sd                =   3.9720546451956E-15
(PID.TID 0000.0001) %MON obc_N_vVel_Int               =   5.0731446581681E+00
(PID.TID 0000.0001) // =======================================================
(PID.TID 0000.0001) // End OBCS MONITOR field statistics
(PID.TID 0000.0001) // =======================================================
 cg2d: Sum(rhs),rhsMax =   3.00597939267820E+00  4.53038970880134E+02
(PID.TID 0000.0001)      cg2d_init_res =   5.81246528528671E-06
(PID.TID 0000.0001)      cg2d_iters(min,last) =      -1      78
(PID.TID 0000.0001)      cg2d_last_res =   9.53835211631777E-12
(PID.TID 0000.0001) // =======================================================
(PID.TID 0000.0001) // Begin MONITOR dynamic field statistics
(PID.TID 0000.0001) // =======================================================
(PID.TID 0000.0001) %MON time_tsnumber                =                  1453
(PID.TID 0000.0001) %MON time_secondsf                =   1.4530000000000E+05
(PID.TID 0000.0001) %MON dynstat_eta_max              =   5.7995216422006E+00
(PID.TID 0000.0001) %MON dynstat_eta_min              =  -1.4165991534834E+01
(PID.TID 0000.0001) %MON dynstat_eta_mean             =  -2.5218996491589E+00
(PID.TID 0000.0001) %MON dynstat_eta_sd               =   4.9404529956867E+00
(PID.TID 0000.0001) %MON dynstat_eta_del2             =   1.9059425903512E-01
(PID.TID 0000.0001) %MON dynstat_uvel_max             =   1.2718462991701E-02
(PID.TID 0000.0001) %MON dynstat_uvel_min             =  -5.7702992333361E-02
(PID.TID 0000.0001) %MON dynstat_uvel_mean            =   5.6670228665202E-09
(PID.TID 0000.0001) %MON dynstat_uvel_sd              =   1.6705696198471E-03
(PID.TID 0000.0001) %MON dynstat_uvel_del2            =   2.6001314411150E-06
(PID.TID 0000.0001) %MON dynstat_vvel_max             =   3.3837663650909E-02
(PID.TID 0000.0001) %MON dynstat_vvel_min             =  -1.7245754869286E-02
(PID.TID 0000.0001) %MON dynstat_vvel_mean            =   1.2196935429774E-07
(PID.TID 0000.0001) %MON dynstat_vvel_sd              =   7.3196642387330E-04
(PID.TID 0000.0001) %MON dynstat_vvel_del2            =   1.9068365531073E-06
(PID.TID 0000.0001) %MON dynstat_wvel_max             =   2.2067192059940E-03
(PID.TID 0000.0001) %MON dynstat_wvel_min             =  -2.8266571296876E-03
(PID.TID 0000.0001) %MON dynstat_wvel_mean            =   4.4896625738366E-10
(PID.TID 0000.0001) %MON dynstat_wvel_sd              =   3.7081250744942E-05
(PID.TID 0000.0001) %MON dynstat_wvel_del2            =   1.4142354504256E-07
(PID.TID 0000.0001) %MON dynstat_theta_max            =   1.2000000000000E+00
(PID.TID 0000.0001) %MON dynstat_theta_min            =  -1.0000000000000E+00
(PID.TID 0000.0001) %MON dynstat_theta_mean           =   5.6486059741563E-01
(PID.TID 0000.0001) %MON dynstat_theta_sd             =   8.4881827689768E-01
(PID.TID 0000.0001) %MON dynstat_theta_del2           =   5.2621765879567E-06
(PID.TID 0000.0001) %MON dynstat_salt_max             =   3.4700000000000E+01
(PID.TID 0000.0001) %MON dynstat_salt_min             =   3.4000000000000E+01
(PID.TID 0000.0001) %MON dynstat_salt_mean            =   3.4497858337867E+01
(PID.TID 0000.0001) %MON dynstat_salt_sd              =   2.7006695700430E-01
(PID.TID 0000.0001) %MON dynstat_salt_del2            =   2.0849588129206E-06
(PID.TID 0000.0001) %MON advcfl_uvel_max              =   5.7702992333361E-03
(PID.TID 0000.0001) %MON advcfl_vvel_max              =   3.3837663650909E-03
(PID.TID 0000.0001) %MON advcfl_wvel_max              =   1.4133285648438E-02
(PID.TID 0000.0001) %MON advcfl_W_hf_max              =   1.4133285648438E-02
(PID.TID 0000.0001) %MON pe_b_mean                    =  -6.8131283239093E-01
(PID.TID 0000.0001) %MON ke_max                       =   1.5540408030556E-03
(PID.TID 0000.0001) %MON ke_mean                      =   1.6370497349599E-06
(PID.TID 0000.0001) %MON ke_vol                       =   4.6183198540551E+12
(PID.TID 0000.0001) // =======================================================
(PID.TID 0000.0001) // End MONITOR dynamic field statistics
(PID.TID 0000.0001) // =======================================================
(PID.TID 0000.0001) // =======================================================
(PID.TID 0000.0001) // Begin OBCS MONITOR field statistics
(PID.TID 0000.0001) // =======================================================
(PID.TID 0000.0001) %MON obc_N_vVel_max               =   7.3310879560492E-08
(PID.TID 0000.0001) %MON obc_N_vVel_min               =   7.3310879560492E-08
(PID.TID 0000.0001) %MON obc_N_vVel_mean              =   7.3310879560492E-08
(PID.TID 0000.0001) %MON obc_N_vVel_sd                =   1.1614439925920E-14
(PID.TID 0000.0001) %MON obc_N_vVel_Int               =   4.8385180509924E+00
(PID.TID 0000.0001) // =======================================================
(PID.TID 0000.0001) // End OBCS MONITOR field statistics
(PID.TID 0000.0001) // =======================================================
 cg2d: Sum(rhs),rhsMax =   3.00596706455752E+00  4.53038948952546E+02
(PID.TID 0000.0001)      cg2d_init_res =   5.82200821599602E-06
(PID.TID 0000.0001)      cg2d_iters(min,last) =      -1      78
(PID.TID 0000.0001)      cg2d_last_res =   9.55989686771401E-12
(PID.TID 0000.0001) // =======================================================
(PID.TID 0000.0001) // Begin MONITOR dynamic field statistics
(PID.TID 0000.0001) // =======================================================
(PID.TID 0000.0001) %MON time_tsnumber                =                  1454
(PID.TID 0000.0001) %MON time_secondsf                =   1.4540000000000E+05
(PID.TID 0000.0001) %MON dynstat_eta_max              =   5.7995248841210E+00
(PID.TID 0000.0001) %MON dynstat_eta_min              =  -1.4165967875837E+01
(PID.TID 0000.0001) %MON dynstat_eta_mean             =  -2.5218891842835E+00
(PID.TID 0000.0001) %MON dynstat_eta_sd               =   4.9404499837613E+00
(PID.TID 0000.0001) %MON dynstat_eta_del2             =   1.9059429078528E-01
(PID.TID 0000.0001) %MON dynstat_uvel_max             =   1.2746533987371E-02
(PID.TID 0000.0001) %MON dynstat_uvel_min             =  -5.7828429242168E-02
(PID.TID 0000.0001) %MON dynstat_uvel_mean            =   5.6866266453734E-09
(PID.TID 0000.0001) %MON dynstat_uvel_sd              =   1.6742120824396E-03
(PID.TID 0000.0001) %MON dynstat_uvel_del2            =   2.6060974041956E-06
(PID.TID 0000.0001) %MON dynstat_vvel_max             =   3.3880658505865E-02
(PID.TID 0000.0001) %MON dynstat_vvel_min             =  -1.7289699807707E-02
(PID.TID 0000.0001) %MON dynstat_vvel_mean            =   1.1813639535302E-07
(PID.TID 0000.0001) %MON dynstat_vvel_sd              =   7.3336424126429E-04
(PID.TID 0000.0001) %MON dynstat_vvel_del2            =   1.9101254757753E-06
(PID.TID 0000.0001) %MON dynstat_wvel_max             =   2.2103010975061E-03
(PID.TID 0000.0001) %MON dynstat_wvel_min             =  -2.8303126684397E-03
(PID.TID 0000.0001) %MON dynstat_wvel_mean            =   4.4988515395730E-10
(PID.TID 0000.0001) %MON dynstat_wvel_sd              =   3.7145432550171E-05
(PID.TID 0000.0001) %MON dynstat_wvel_del2            =   1.4161829889690E-07
(PID.TID 0000.0001) %MON dynstat_theta_max            =   1.2000000000000E+00
(PID.TID 0000.0001) %MON dynstat_theta_min            =  -1.0000000000000E+00
(PID.TID 0000.0001) %MON dynstat_theta_mean           =   5.6485942893919E-01
(PID.TID 0000.0001) %MON dynstat_theta_sd             =   8.4881775549662E-01
(PID.TID 0000.0001) %MON dynstat_theta_del2           =   5.2711101602392E-06
(PID.TID 0000.0001) %MON dynstat_salt_max             =   3.4700000000000E+01
(PID.TID 0000.0001) %MON dynstat_salt_min             =   3.4000000000000E+01
(PID.TID 0000.0001) %MON dynstat_salt_mean            =   3.4497857870657E+01
(PID.TID 0000.0001) %MON dynstat_salt_sd              =   2.7006676122907E-01
(PID.TID 0000.0001) %MON dynstat_salt_del2            =   2.0885126935477E-06
(PID.TID 0000.0001) %MON advcfl_uvel_max              =   5.7828429242168E-03
(PID.TID 0000.0001) %MON advcfl_vvel_max              =   3.3880658505865E-03
(PID.TID 0000.0001) %MON advcfl_wvel_max              =   1.4151563342198E-02
(PID.TID 0000.0001) %MON advcfl_W_hf_max              =   1.4151563342198E-02
(PID.TID 0000.0001) %MON pe_b_mean                    =  -6.8130967785135E-01
(PID.TID 0000.0001) %MON ke_max                       =   1.5606778864796E-03
(PID.TID 0000.0001) %MON ke_mean                      =   1.6440509463319E-06
(PID.TID 0000.0001) %MON ke_vol                       =   4.6183199160840E+12
(PID.TID 0000.0001) // =======================================================
(PID.TID 0000.0001) // End MONITOR dynamic field statistics
(PID.TID 0000.0001) // =======================================================
(PID.TID 0000.0001) // =======================================================
(PID.TID 0000.0001) // Begin OBCS MONITOR field statistics
(PID.TID 0000.0001) // =======================================================
(PID.TID 0000.0001) %MON obc_N_vVel_max               =   6.9645384090792E-08
(PID.TID 0000.0001) %MON obc_N_vVel_min               =   6.9645384090792E-08
(PID.TID 0000.0001) %MON obc_N_vVel_mean              =   6.9645384090792E-08
(PID.TID 0000.0001) %MON obc_N_vVel_sd                =  -1.1280710944660E-28
(PID.TID 0000.0001) %MON obc_N_vVel_Int               =   4.5965953499923E+00
(PID.TID 0000.0001) // =======================================================
(PID.TID 0000.0001) // End OBCS MONITOR field statistics
(PID.TID 0000.0001) // =======================================================
 cg2d: Sum(rhs),rhsMax =   3.00595471059842E+00  4.53038926902866E+02
(PID.TID 0000.0001)      cg2d_init_res =   5.83151979648332E-06
(PID.TID 0000.0001)      cg2d_iters(min,last) =      -1      78
(PID.TID 0000.0001)      cg2d_last_res =   9.58151707020870E-12
(PID.TID 0000.0001) // =======================================================
(PID.TID 0000.0001) // Begin MONITOR dynamic field statistics
(PID.TID 0000.0001) // =======================================================
(PID.TID 0000.0001) %MON time_tsnumber                =                  1455
(PID.TID 0000.0001) %MON time_secondsf                =   1.4550000000000E+05
(PID.TID 0000.0001) %MON dynstat_eta_max              =   5.7995281370782E+00
(PID.TID 0000.0001) %MON dynstat_eta_min              =  -1.4165944155032E+01
(PID.TID 0000.0001) %MON dynstat_eta_mean             =  -2.5218786970521E+00
(PID.TID 0000.0001) %MON dynstat_eta_sd               =   4.9404469652569E+00
(PID.TID 0000.0001) %MON dynstat_eta_del2             =   1.9059432258854E-01
(PID.TID 0000.0001) %MON dynstat_uvel_max             =   1.2774637376811E-02
(PID.TID 0000.0001) %MON dynstat_uvel_min             =  -5.7953958082184E-02
(PID.TID 0000.0001) %MON dynstat_uvel_mean            =   5.7023488068625E-09
(PID.TID 0000.0001) %MON dynstat_uvel_sd              =   1.6778604605564E-03
(PID.TID 0000.0001) %MON dynstat_uvel_del2            =   2.6120751244420E-06
(PID.TID 0000.0001) %MON dynstat_vvel_max             =   3.3923656470045E-02
(PID.TID 0000.0001) %MON dynstat_vvel_min             =  -1.7333708727856E-02
(PID.TID 0000.0001) %MON dynstat_vvel_mean            =   1.1433929331529E-07
(PID.TID 0000.0001) %MON dynstat_vvel_sd              =   7.3476409958639E-04
(PID.TID 0000.0001) %MON dynstat_vvel_del2            =   1.9134175651698E-06
(PID.TID 0000.0001) %MON dynstat_wvel_max             =   2.2138841171250E-03
(PID.TID 0000.0001) %MON dynstat_wvel_min             =  -2.8339505341798E-03
(PID.TID 0000.0001) %MON dynstat_wvel_mean            =   4.5145227679374E-10
(PID.TID 0000.0001) %MON dynstat_wvel_sd              =   3.7209335405394E-05
(PID.TID 0000.0001) %MON dynstat_wvel_del2            =   1.4181150397675E-07
(PID.TID 0000.0001) %MON dynstat_theta_max            =   1.2000000000000E+00
(PID.TID 0000.0001) %MON dynstat_theta_min            =  -1.0000000000000E+00
(PID.TID 0000.0001) %MON dynstat_theta_mean           =   5.6485825845131E-01
(PID.TID 0000.0001) %MON dynstat_theta_sd             =   8.4881723331169E-01
(PID.TID 0000.0001) %MON dynstat_theta_del2           =   5.2800544029893E-06
(PID.TID 0000.0001) %MON dynstat_salt_max             =   3.4700000000000E+01
(PID.TID 0000.0001) %MON dynstat_salt_min             =   3.4000000000000E+01
(PID.TID 0000.0001) %MON dynstat_salt_mean            =   3.4497857402642E+01
(PID.TID 0000.0001) %MON dynstat_salt_sd              =   2.7006656517228E-01
(PID.TID 0000.0001) %MON dynstat_salt_del2            =   2.0920707309875E-06
(PID.TID 0000.0001) %MON advcfl_uvel_max              =   5.7953958082184E-03
(PID.TID 0000.0001) %MON advcfl_vvel_max              =   3.3923656470045E-03
(PID.TID 0000.0001) %MON advcfl_wvel_max              =   1.4169752670899E-02
(PID.TID 0000.0001) %MON advcfl_W_hf_max              =   1.4169752670899E-02
(PID.TID 0000.0001) %MON pe_b_mean                    =  -6.8130651696394E-01
(PID.TID 0000.0001) %MON ke_max                       =   1.5673377224077E-03
(PID.TID 0000.0001) %MON ke_mean                      =   1.6510783680747E-06
(PID.TID 0000.0001) %MON ke_vol                       =   4.6183199782454E+12
(PID.TID 0000.0001) // =======================================================
(PID.TID 0000.0001) // End MONITOR dynamic field statistics
(PID.TID 0000.0001) // =======================================================
(PID.TID 0000.0001) // =======================================================
(PID.TID 0000.0001) // Begin OBCS MONITOR field statistics
(PID.TID 0000.0001) // =======================================================
(PID.TID 0000.0001) %MON obc_N_vVel_max               =   6.5955412126383E-08
(PID.TID 0000.0001) %MON obc_N_vVel_min               =   6.5955412126383E-08
(PID.TID 0000.0001) %MON obc_N_vVel_mean              =   6.5955412126383E-08
(PID.TID 0000.0001) %MON obc_N_vVel_sd                =  -3.3921018924504E-29
(PID.TID 0000.0001) %MON obc_N_vVel_Int               =   4.3530572003413E+00
(PID.TID 0000.0001) // =======================================================
(PID.TID 0000.0001) // End OBCS MONITOR field statistics
(PID.TID 0000.0001) // =======================================================
 cg2d: Sum(rhs),rhsMax =   3.00594233074727E+00  4.53038904746871E+02
(PID.TID 0000.0001)      cg2d_init_res =   5.84099403049217E-06
(PID.TID 0000.0001)      cg2d_iters(min,last) =      -1      78
(PID.TID 0000.0001)      cg2d_last_res =   9.60318862985922E-12
(PID.TID 0000.0001) // =======================================================
(PID.TID 0000.0001) // Begin MONITOR dynamic field statistics
(PID.TID 0000.0001) // =======================================================
(PID.TID 0000.0001) %MON time_tsnumber                =                  1456
(PID.TID 0000.0001) %MON time_secondsf                =   1.4560000000000E+05
(PID.TID 0000.0001) %MON dynstat_eta_max              =   5.7995314007956E+00
(PID.TID 0000.0001) %MON dynstat_eta_min              =  -1.4165920372607E+01
(PID.TID 0000.0001) %MON dynstat_eta_mean             =  -2.5218681875074E+00
(PID.TID 0000.0001) %MON dynstat_eta_sd               =   4.9404439402628E+00
(PID.TID 0000.0001) %MON dynstat_eta_del2             =   1.9059435444520E-01
(PID.TID 0000.0001) %MON dynstat_uvel_max             =   1.2802773095802E-02
(PID.TID 0000.0001) %MON dynstat_uvel_min             =  -5.8079578637056E-02
(PID.TID 0000.0001) %MON dynstat_uvel_mean            =   5.7142229156333E-09
(PID.TID 0000.0001) %MON dynstat_uvel_sd              =   1.6815147530959E-03
(PID.TID 0000.0001) %MON dynstat_uvel_del2            =   2.6180646165773E-06
(PID.TID 0000.0001) %MON dynstat_vvel_max             =   3.3966657484538E-02
(PID.TID 0000.0001) %MON dynstat_vvel_min             =  -1.7377781247571E-02
(PID.TID 0000.0001) %MON dynstat_vvel_mean            =   1.1066727978940E-07
(PID.TID 0000.0001) %MON dynstat_vvel_sd              =   7.3616601051021E-04
(PID.TID 0000.0001) %MON dynstat_vvel_del2            =   1.9167128413221E-06
(PID.TID 0000.0001) %MON dynstat_wvel_max             =   2.2174682469677E-03
(PID.TID 0000.0001) %MON dynstat_wvel_min             =  -2.8375705823375E-03
(PID.TID 0000.0001) %MON dynstat_wvel_mean            =   4.5364282901914E-10
(PID.TID 0000.0001) %MON dynstat_wvel_sd              =   3.7272971716631E-05
(PID.TID 0000.0001) %MON dynstat_wvel_del2            =   1.4200306968872E-07
(PID.TID 0000.0001) %MON dynstat_theta_max            =   1.2000000000000E+00
(PID.TID 0000.0001) %MON dynstat_theta_min            =  -1.0000000000000E+00
(PID.TID 0000.0001) %MON dynstat_theta_mean           =   5.6485708594861E-01
(PID.TID 0000.0001) %MON dynstat_theta_sd             =   8.4881671034475E-01
(PID.TID 0000.0001) %MON dynstat_theta_del2           =   5.2890093299347E-06
(PID.TID 0000.0001) %MON dynstat_salt_max             =   3.4700000000000E+01
(PID.TID 0000.0001) %MON dynstat_salt_min             =   3.4000000000000E+01
(PID.TID 0000.0001) %MON dynstat_salt_mean            =   3.4497856933819E+01
(PID.TID 0000.0001) %MON dynstat_salt_sd              =   2.7006636883456E-01
(PID.TID 0000.0001) %MON dynstat_salt_del2            =   2.0956329644666E-06
(PID.TID 0000.0001) %MON advcfl_uvel_max              =   5.8079578637056E-03
(PID.TID 0000.0001) %MON advcfl_vvel_max              =   3.3966657484538E-03
(PID.TID 0000.0001) %MON advcfl_wvel_max              =   1.4187852911688E-02
(PID.TID 0000.0001) %MON advcfl_W_hf_max              =   1.4187852911688E-02
(PID.TID 0000.0001) %MON pe_b_mean                    =  -6.8130334975331E-01
(PID.TID 0000.0001) %MON ke_max                       =   1.5740203488559E-03
(PID.TID 0000.0001) %MON ke_mean                      =   1.6581320790713E-06
(PID.TID 0000.0001) %MON ke_vol                       =   4.6183200405395E+12
(PID.TID 0000.0001) // =======================================================
(PID.TID 0000.0001) // End MONITOR dynamic field statistics
(PID.TID 0000.0001) // =======================================================
(PID.TID 0000.0001) // =======================================================
(PID.TID 0000.0001) // Begin OBCS MONITOR field statistics
(PID.TID 0000.0001) // =======================================================
(PID.TID 0000.0001) %MON obc_N_vVel_max               =   6.2326749449307E-08
(PID.TID 0000.0001) %MON obc_N_vVel_min               =   6.2326749449306E-08
(PID.TID 0000.0001) %MON obc_N_vVel_mean              =   6.2326749449306E-08
(PID.TID 0000.0001) %MON obc_N_vVel_sd                =   1.4915051970152E-14
(PID.TID 0000.0001) %MON obc_N_vVel_Int               =   4.1135654636542E+00
(PID.TID 0000.0001) // =======================================================
(PID.TID 0000.0001) // End OBCS MONITOR field statistics
(PID.TID 0000.0001) // =======================================================
 cg2d: Sum(rhs),rhsMax =   3.00592992505404E+00  4.53038882501685E+02
(PID.TID 0000.0001)      cg2d_init_res =   5.85043403281809E-06
(PID.TID 0000.0001)      cg2d_iters(min,last) =      -1      78
(PID.TID 0000.0001)      cg2d_last_res =   9.62489674852040E-12
(PID.TID 0000.0001) // =======================================================
(PID.TID 0000.0001) // Begin MONITOR dynamic field statistics
(PID.TID 0000.0001) // =======================================================
(PID.TID 0000.0001) %MON time_tsnumber                =                  1457
(PID.TID 0000.0001) %MON time_secondsf                =   1.4570000000000E+05
(PID.TID 0000.0001) %MON dynstat_eta_max              =   5.7995346748235E+00
(PID.TID 0000.0001) %MON dynstat_eta_min              =  -1.4165896528918E+01
(PID.TID 0000.0001) %MON dynstat_eta_mean             =  -2.5218576557868E+00
(PID.TID 0000.0001) %MON dynstat_eta_sd               =   4.9404409088985E+00
(PID.TID 0000.0001) %MON dynstat_eta_del2             =   1.9059438635572E-01
(PID.TID 0000.0001) %MON dynstat_uvel_max             =   1.2830941079829E-02
(PID.TID 0000.0001) %MON dynstat_uvel_min             =  -5.8205290694591E-02
(PID.TID 0000.0001) %MON dynstat_uvel_mean            =   5.7223608584179E-09
(PID.TID 0000.0001) %MON dynstat_uvel_sd              =   1.6851749588809E-03
(PID.TID 0000.0001) %MON dynstat_uvel_del2            =   2.6240658953280E-06
(PID.TID 0000.0001) %MON dynstat_vvel_max             =   3.4009661489233E-02
(PID.TID 0000.0001) %MON dynstat_vvel_min             =  -1.7421916976499E-02
(PID.TID 0000.0001) %MON dynstat_vvel_mean            =   1.0720610984567E-07
(PID.TID 0000.0001) %MON dynstat_vvel_sd              =   7.3756998970977E-04
(PID.TID 0000.0001) %MON dynstat_vvel_del2            =   1.9200113469416E-06
(PID.TID 0000.0001) %MON dynstat_wvel_max             =   2.2210534690638E-03
(PID.TID 0000.0001) %MON dynstat_wvel_min             =  -2.8411726685566E-03
(PID.TID 0000.0001) %MON dynstat_wvel_mean            =   4.5641879408162E-10
(PID.TID 0000.0001) %MON dynstat_wvel_sd              =   3.7336371009562E-05
(PID.TID 0000.0001) %MON dynstat_wvel_del2            =   1.4219301172712E-07
(PID.TID 0000.0001) %MON dynstat_theta_max            =   1.2000000000000E+00
(PID.TID 0000.0001) %MON dynstat_theta_min            =  -1.0000000000000E+00
(PID.TID 0000.0001) %MON dynstat_theta_mean           =   5.6485591142788E-01
(PID.TID 0000.0001) %MON dynstat_theta_sd             =   8.4881618659725E-01
(PID.TID 0000.0001) %MON dynstat_theta_del2           =   5.2979748785320E-06
(PID.TID 0000.0001) %MON dynstat_salt_max             =   3.4700000000000E+01
(PID.TID 0000.0001) %MON dynstat_salt_min             =   3.4000000000000E+01
(PID.TID 0000.0001) %MON dynstat_salt_mean            =   3.4497856464187E+01
(PID.TID 0000.0001) %MON dynstat_salt_sd              =   2.7006617221665E-01
(PID.TID 0000.0001) %MON dynstat_salt_del2            =   2.0991993566362E-06
(PID.TID 0000.0001) %MON advcfl_uvel_max              =   5.8205290694591E-03
(PID.TID 0000.0001) %MON advcfl_vvel_max              =   3.4009661489233E-03
(PID.TID 0000.0001) %MON advcfl_wvel_max              =   1.4205863342783E-02
(PID.TID 0000.0001) %MON advcfl_W_hf_max              =   1.4205863342783E-02
(PID.TID 0000.0001) %MON pe_b_mean                    =  -6.8130017626247E-01
(PID.TID 0000.0001) %MON ke_max                       =   1.5807258032561E-03
(PID.TID 0000.0001) %MON ke_mean                      =   1.6652121611962E-06
(PID.TID 0000.0001) %MON ke_vol                       =   4.6183201029662E+12
(PID.TID 0000.0001) // =======================================================
(PID.TID 0000.0001) // End MONITOR dynamic field statistics
(PID.TID 0000.0001) // =======================================================
(PID.TID 0000.0001) // =======================================================
(PID.TID 0000.0001) // Begin OBCS MONITOR field statistics
(PID.TID 0000.0001) // =======================================================
(PID.TID 0000.0001) %MON obc_N_vVel_max               =   5.8843089116405E-08
(PID.TID 0000.0001) %MON obc_N_vVel_min               =   5.8843089116403E-08
(PID.TID 0000.0001) %MON obc_N_vVel_mean              =   5.8843089116403E-08
(PID.TID 0000.0001) %MON obc_N_vVel_sd                =   1.7449937232417E-14
(PID.TID 0000.0001) %MON obc_N_vVel_Int               =   3.8836438816826E+00
(PID.TID 0000.0001) // =======================================================
(PID.TID 0000.0001) // End OBCS MONITOR field statistics
(PID.TID 0000.0001) // =======================================================
 cg2d: Sum(rhs),rhsMax =   3.00591749366700E+00  4.53038860185455E+02
(PID.TID 0000.0001)      cg2d_init_res =   5.85982809089855E-06
(PID.TID 0000.0001)      cg2d_iters(min,last) =      -1      78
(PID.TID 0000.0001)      cg2d_last_res =   9.64662192705936E-12
(PID.TID 0000.0001) // =======================================================
(PID.TID 0000.0001) // Begin MONITOR dynamic field statistics
(PID.TID 0000.0001) // =======================================================
(PID.TID 0000.0001) %MON time_tsnumber                =                  1458
(PID.TID 0000.0001) %MON time_secondsf                =   1.4580000000000E+05
(PID.TID 0000.0001) %MON dynstat_eta_max              =   5.7995379585985E+00
(PID.TID 0000.0001) %MON dynstat_eta_min              =  -1.4165872624496E+01
(PID.TID 0000.0001) %MON dynstat_eta_mean             =  -2.5218471021156E+00
(PID.TID 0000.0001) %MON dynstat_eta_sd               =   4.9404378713045E+00
(PID.TID 0000.0001) %MON dynstat_eta_del2             =   1.9059441832040E-01
(PID.TID 0000.0001) %MON dynstat_uvel_max             =   1.2859141264365E-02
(PID.TID 0000.0001) %MON dynstat_uvel_min             =  -5.8331094046416E-02
(PID.TID 0000.0001) %MON dynstat_uvel_mean            =   5.7269528170318E-09
(PID.TID 0000.0001) %MON dynstat_uvel_sd              =   1.6888410766698E-03
(PID.TID 0000.0001) %MON dynstat_uvel_del2            =   2.6300789751242E-06
(PID.TID 0000.0001) %MON dynstat_vvel_max             =   3.4052668422635E-02
(PID.TID 0000.0001) %MON dynstat_vvel_min             =  -1.7466115516461E-02
(PID.TID 0000.0001) %MON dynstat_vvel_mean            =   1.0403627671307E-07
(PID.TID 0000.0001) %MON dynstat_vvel_sd              =   7.3897605643136E-04
(PID.TID 0000.0001) %MON dynstat_vvel_del2            =   1.9233131455514E-06
(PID.TID 0000.0001) %MON dynstat_wvel_max             =   2.2246397653747E-03
(PID.TID 0000.0001) %MON dynstat_wvel_min             =  -2.8447566487672E-03
(PID.TID 0000.0001) %MON dynstat_wvel_mean            =   4.5973042050372E-10
(PID.TID 0000.0001) %MON dynstat_wvel_sd              =   3.7399578994506E-05
(PID.TID 0000.0001) %MON dynstat_wvel_del2            =   1.4238145131916E-07
(PID.TID 0000.0001) %MON dynstat_theta_max            =   1.2000000000000E+00
(PID.TID 0000.0001) %MON dynstat_theta_min            =  -1.0000000000000E+00
(PID.TID 0000.0001) %MON dynstat_theta_mean           =   5.6485473488598E-01
(PID.TID 0000.0001) %MON dynstat_theta_sd             =   8.4881566207073E-01
(PID.TID 0000.0001) %MON dynstat_theta_del2           =   5.3069508376879E-06
(PID.TID 0000.0001) %MON dynstat_salt_max             =   3.4700000000000E+01
(PID.TID 0000.0001) %MON dynstat_salt_min             =   3.4000000000000E+01
(PID.TID 0000.0001) %MON dynstat_salt_mean            =   3.4497855993746E+01
(PID.TID 0000.0001) %MON dynstat_salt_sd              =   2.7006597531887E-01
(PID.TID 0000.0001) %MON dynstat_salt_del2            =   2.1027698429200E-06
(PID.TID 0000.0001) %MON advcfl_uvel_max              =   5.8331094046416E-03
(PID.TID 0000.0001) %MON advcfl_vvel_max              =   3.4052668422635E-03
(PID.TID 0000.0001) %MON advcfl_wvel_max              =   1.4223783243836E-02
(PID.TID 0000.0001) %MON advcfl_W_hf_max              =   1.4223783243836E-02
(PID.TID 0000.0001) %MON pe_b_mean                    =  -6.8129699655114E-01
(PID.TID 0000.0001) %MON ke_max                       =   1.5874541224521E-03
(PID.TID 0000.0001) %MON ke_mean                      =   1.6723186990414E-06
(PID.TID 0000.0001) %MON ke_vol                       =   4.6183201655246E+12
(PID.TID 0000.0001) // =======================================================
(PID.TID 0000.0001) // End MONITOR dynamic field statistics
(PID.TID 0000.0001) // =======================================================
(PID.TID 0000.0001) // =======================================================
(PID.TID 0000.0001) // Begin OBCS MONITOR field statistics
(PID.TID 0000.0001) // =======================================================
(PID.TID 0000.0001) %MON obc_N_vVel_max               =   5.5584267623731E-08
(PID.TID 0000.0001) %MON obc_N_vVel_min               =   5.5584267623730E-08
(PID.TID 0000.0001) %MON obc_N_vVel_mean              =   5.5584267623731E-08
(PID.TID 0000.0001) %MON obc_N_vVel_sd                =  -1.2069571849881E-28
(PID.TID 0000.0001) %MON obc_N_vVel_Int               =   3.6685616631663E+00
(PID.TID 0000.0001) // =======================================================
(PID.TID 0000.0001) // End OBCS MONITOR field statistics
(PID.TID 0000.0001) // =======================================================
 cg2d: Sum(rhs),rhsMax =   3.00590503682920E+00  4.53038837816900E+02
(PID.TID 0000.0001)      cg2d_init_res =   5.86917612917879E-06
(PID.TID 0000.0001)      cg2d_iters(min,last) =      -1      78
(PID.TID 0000.0001)      cg2d_last_res =   9.66833071650512E-12
(PID.TID 0000.0001) // =======================================================
(PID.TID 0000.0001) // Begin MONITOR dynamic field statistics
(PID.TID 0000.0001) // =======================================================
(PID.TID 0000.0001) %MON time_tsnumber                =                  1459
(PID.TID 0000.0001) %MON time_secondsf                =   1.4590000000000E+05
(PID.TID 0000.0001) %MON dynstat_eta_max              =   5.7995412514161E+00
(PID.TID 0000.0001) %MON dynstat_eta_min              =  -1.4165848660001E+01
(PID.TID 0000.0001) %MON dynstat_eta_mean             =  -2.5218365268020E+00
(PID.TID 0000.0001) %MON dynstat_eta_sd               =   4.9404348276417E+00
(PID.TID 0000.0001) %MON dynstat_eta_del2             =   1.9059445033953E-01
(PID.TID 0000.0001) %MON dynstat_uvel_max             =   1.2887373584800E-02
(PID.TID 0000.0001) %MON dynstat_uvel_min             =  -5.8456988488491E-02
(PID.TID 0000.0001) %MON dynstat_uvel_mean            =   5.7282701255491E-09
(PID.TID 0000.0001) %MON dynstat_uvel_sd              =   1.6925131051566E-03
(PID.TID 0000.0001) %MON dynstat_uvel_del2            =   2.6361038701080E-06
(PID.TID 0000.0001) %MON dynstat_vvel_max             =   3.4095678221580E-02
(PID.TID 0000.0001) %MON dynstat_vvel_min             =  -1.7510376461479E-02
(PID.TID 0000.0001) %MON dynstat_vvel_mean            =   1.0123134495719E-07
(PID.TID 0000.0001) %MON dynstat_vvel_sd              =   7.4038423279979E-04
(PID.TID 0000.0001) %MON dynstat_vvel_del2            =   1.9266183179699E-06
(PID.TID 0000.0001) %MON dynstat_wvel_max             =   2.2282271177703E-03
(PID.TID 0000.0001) %MON dynstat_wvel_min             =  -2.8483223791823E-03
(PID.TID 0000.0001) %MON dynstat_wvel_mean            =   4.6351673286890E-10
(PID.TID 0000.0001) %MON dynstat_wvel_sd              =   3.7462655486869E-05
(PID.TID 0000.0001) %MON dynstat_wvel_del2            =   1.4256860637443E-07
(PID.TID 0000.0001) %MON dynstat_theta_max            =   1.2000000000000E+00
(PID.TID 0000.0001) %MON dynstat_theta_min            =  -1.0000000000000E+00
(PID.TID 0000.0001) %MON dynstat_theta_mean           =   5.6485355631980E-01
(PID.TID 0000.0001) %MON dynstat_theta_sd             =   8.4881513676583E-01
(PID.TID 0000.0001) %MON dynstat_theta_del2           =   5.3159371335689E-06
(PID.TID 0000.0001) %MON dynstat_salt_max             =   3.4700000000000E+01
(PID.TID 0000.0001) %MON dynstat_salt_min             =   3.4000000000000E+01
(PID.TID 0000.0001) %MON dynstat_salt_mean            =   3.4497855522493E+01
(PID.TID 0000.0001) %MON dynstat_salt_sd              =   2.7006577814174E-01
(PID.TID 0000.0001) %MON dynstat_salt_del2            =   2.1063443935119E-06
(PID.TID 0000.0001) %MON advcfl_uvel_max              =   5.8456988488491E-03
(PID.TID 0000.0001) %MON advcfl_vvel_max              =   3.4095678221580E-03
(PID.TID 0000.0001) %MON advcfl_wvel_max              =   1.4241611895912E-02
(PID.TID 0000.0001) %MON advcfl_W_hf_max              =   1.4241611895912E-02
(PID.TID 0000.0001) %MON pe_b_mean                    =  -6.8129381069435E-01
(PID.TID 0000.0001) %MON ke_max                       =   1.5942053401968E-03
(PID.TID 0000.0001) %MON ke_mean                      =   1.6794517794284E-06
(PID.TID 0000.0001) %MON ke_vol                       =   4.6183202282134E+12
(PID.TID 0000.0001) // =======================================================
(PID.TID 0000.0001) // End MONITOR dynamic field statistics
(PID.TID 0000.0001) // =======================================================
(PID.TID 0000.0001) // =======================================================
(PID.TID 0000.0001) // Begin OBCS MONITOR field statistics
(PID.TID 0000.0001) // =======================================================
(PID.TID 0000.0001) %MON obc_N_vVel_max               =   5.2624616983535E-08
(PID.TID 0000.0001) %MON obc_N_vVel_min               =   5.2624616983533E-08
(PID.TID 0000.0001) %MON obc_N_vVel_mean              =   5.2624616983533E-08
(PID.TID 0000.0001) %MON obc_N_vVel_sd                =   1.3008099944646E-14
(PID.TID 0000.0001) %MON obc_N_vVel_Int               =   3.4732247209132E+00
(PID.TID 0000.0001) // =======================================================
(PID.TID 0000.0001) // End OBCS MONITOR field statistics
(PID.TID 0000.0001) // =======================================================
 cg2d: Sum(rhs),rhsMax =   3.00589255487113E+00  4.53038815415034E+02
(PID.TID 0000.0001)      cg2d_init_res =   5.87848258712285E-06
(PID.TID 0000.0001)      cg2d_iters(min,last) =      -1      78
(PID.TID 0000.0001)      cg2d_last_res =   9.69000216132763E-12
(PID.TID 0000.0001) // =======================================================
(PID.TID 0000.0001) // Begin MONITOR dynamic field statistics
(PID.TID 0000.0001) // =======================================================
(PID.TID 0000.0001) %MON time_tsnumber                =                  1460
(PID.TID 0000.0001) %MON time_secondsf                =   1.4600000000000E+05
(PID.TID 0000.0001) %MON dynstat_eta_max              =   5.7995445524613E+00
(PID.TID 0000.0001) %MON dynstat_eta_min              =  -1.4165824636243E+01
(PID.TID 0000.0001) %MON dynstat_eta_mean             =  -2.5218259302291E+00
(PID.TID 0000.0001) %MON dynstat_eta_sd               =   4.9404317780906E+00
(PID.TID 0000.0001) %MON dynstat_eta_del2             =   1.9059448241355E-01
(PID.TID 0000.0001) %MON dynstat_uvel_max             =   1.2915637976400E-02
(PID.TID 0000.0001) %MON dynstat_uvel_min             =  -5.8582973820425E-02
(PID.TID 0000.0001) %MON dynstat_uvel_mean            =   5.7266594722119E-09
(PID.TID 0000.0001) %MON dynstat_uvel_sd              =   1.6961910428873E-03
(PID.TID 0000.0001) %MON dynstat_uvel_del2            =   2.6421405940874E-06
(PID.TID 0000.0001) %MON dynstat_vvel_max             =   3.4138690449889E-02
(PID.TID 0000.0001) %MON dynstat_vvel_min             =  -1.7554699398229E-02
(PID.TID 0000.0001) %MON dynstat_vvel_mean            =   9.8856424602193E-08
(PID.TID 0000.0001) %MON dynstat_vvel_sd              =   7.4179454276987E-04
(PID.TID 0000.0001) %MON dynstat_vvel_del2            =   1.9299269567498E-06
(PID.TID 0000.0001) %MON dynstat_wvel_max             =   2.2318153980267E-03
(PID.TID 0000.0001) %MON dynstat_wvel_min             =  -2.8518697162347E-03
(PID.TID 0000.0001) %MON dynstat_wvel_mean            =   4.6770682265393E-10
(PID.TID 0000.0001) %MON dynstat_wvel_sd              =   3.7525671054678E-05
(PID.TID 0000.0001) %MON dynstat_wvel_del2            =   1.4275477387967E-07
(PID.TID 0000.0001) %MON dynstat_theta_max            =   1.2000000000000E+00
(PID.TID 0000.0001) %MON dynstat_theta_min            =  -1.0000000000000E+00
(PID.TID 0000.0001) %MON dynstat_theta_mean           =   5.6485237572636E-01
(PID.TID 0000.0001) %MON dynstat_theta_sd             =   8.4881461068288E-01
(PID.TID 0000.0001) %MON dynstat_theta_del2           =   5.3249336996313E-06
(PID.TID 0000.0001) %MON dynstat_salt_max             =   3.4700000000000E+01
(PID.TID 0000.0001) %MON dynstat_salt_min             =   3.4000000000000E+01
(PID.TID 0000.0001) %MON dynstat_salt_mean            =   3.4497855050428E+01
(PID.TID 0000.0001) %MON dynstat_salt_sd              =   2.7006558068535E-01
(PID.TID 0000.0001) %MON dynstat_salt_del2            =   2.1099229705412E-06
(PID.TID 0000.0001) %MON advcfl_uvel_max              =   5.8582973820425E-03
(PID.TID 0000.0001) %MON advcfl_vvel_max              =   3.4138690449889E-03
(PID.TID 0000.0001) %MON advcfl_wvel_max              =   1.4259348581174E-02
(PID.TID 0000.0001) %MON advcfl_W_hf_max              =   1.4259348581174E-02
(PID.TID 0000.0001) %MON pe_b_mean                    =  -6.8129061878062E-01
(PID.TID 0000.0001) %MON ke_max                       =   1.6009794880345E-03
(PID.TID 0000.0001) %MON ke_mean                      =   1.6866114905101E-06
(PID.TID 0000.0001) %MON ke_vol                       =   4.6183202910308E+12
(PID.TID 0000.0001) // =======================================================
(PID.TID 0000.0001) // End MONITOR dynamic field statistics
(PID.TID 0000.0001) // =======================================================
(PID.TID 0000.0001) // =======================================================
(PID.TID 0000.0001) // Begin OBCS MONITOR field statistics
(PID.TID 0000.0001) // =======================================================
(PID.TID 0000.0001) %MON obc_N_vVel_max               =   5.0031390531002E-08
(PID.TID 0000.0001) %MON obc_N_vVel_min               =   5.0031390531000E-08
(PID.TID 0000.0001) %MON obc_N_vVel_mean              =   5.0031390531002E-08
(PID.TID 0000.0001) %MON obc_N_vVel_sd                =  -1.7118281643296E-28
(PID.TID 0000.0001) %MON obc_N_vVel_Int               =   3.3020717750461E+00
(PID.TID 0000.0001) // =======================================================
(PID.TID 0000.0001) // End OBCS MONITOR field statistics
(PID.TID 0000.0001) // =======================================================
 cg2d: Sum(rhs),rhsMax =   3.00588004820243E+00  4.53038792998788E+02
(PID.TID 0000.0001)      cg2d_init_res =   5.88775378788458E-06
(PID.TID 0000.0001)      cg2d_iters(min,last) =      -1      78
(PID.TID 0000.0001)      cg2d_last_res =   9.71163534615533E-12
(PID.TID 0000.0001) // =======================================================
(PID.TID 0000.0001) // Begin MONITOR dynamic field statistics
(PID.TID 0000.0001) // =======================================================
(PID.TID 0000.0001) %MON time_tsnumber                =                  1461
(PID.TID 0000.0001) %MON time_secondsf                =   1.4610000000000E+05
(PID.TID 0000.0001) %MON dynstat_eta_max              =   5.7995478608212E+00
(PID.TID 0000.0001) %MON dynstat_eta_min              =  -1.4165800554138E+01
(PID.TID 0000.0001) %MON dynstat_eta_mean             =  -2.5218153128459E+00
(PID.TID 0000.0001) %MON dynstat_eta_sd               =   4.9404287228439E+00
(PID.TID 0000.0001) %MON dynstat_eta_del2             =   1.9059451454286E-01
(PID.TID 0000.0001) %MON dynstat_uvel_max             =   1.2943934370512E-02
(PID.TID 0000.0001) %MON dynstat_uvel_min             =  -5.8709049845934E-02
(PID.TID 0000.0001) %MON dynstat_uvel_mean            =   5.7225192837774E-09
(PID.TID 0000.0001) %MON dynstat_uvel_sd              =   1.6998748884433E-03
(PID.TID 0000.0001) %MON dynstat_uvel_del2            =   2.6481891612974E-06
(PID.TID 0000.0001) %MON dynstat_vvel_max             =   3.4181705034253E-02
(PID.TID 0000.0001) %MON dynstat_vvel_min             =  -1.7599083845990E-02
(PID.TID 0000.0001) %MON dynstat_vvel_mean            =   9.6966883183030E-08
(PID.TID 0000.0001) %MON dynstat_vvel_sd              =   7.4320701141152E-04
(PID.TID 0000.0001) %MON dynstat_vvel_del2            =   1.9332391622263E-06
(PID.TID 0000.0001) %MON dynstat_wvel_max             =   2.2354045937673E-03
(PID.TID 0000.0001) %MON dynstat_wvel_min             =  -2.8553985266384E-03
(PID.TID 0000.0001) %MON dynstat_wvel_mean            =   4.7222318887477E-10
(PID.TID 0000.0001) %MON dynstat_wvel_sd              =   3.7588703732981E-05
(PID.TID 0000.0001) %MON dynstat_wvel_del2            =   1.4294031197722E-07
(PID.TID 0000.0001) %MON dynstat_theta_max            =   1.2000000000000E+00
(PID.TID 0000.0001) %MON dynstat_theta_min            =  -1.0000000000000E+00
(PID.TID 0000.0001) %MON dynstat_theta_mean           =   5.6485119310278E-01
(PID.TID 0000.0001) %MON dynstat_theta_sd             =   8.4881408382254E-01
(PID.TID 0000.0001) %MON dynstat_theta_del2           =   5.3339404075712E-06
(PID.TID 0000.0001) %MON dynstat_salt_max             =   3.4700000000000E+01
(PID.TID 0000.0001) %MON dynstat_salt_min             =   3.4000000000000E+01
(PID.TID 0000.0001) %MON dynstat_salt_mean            =   3.4497854577550E+01
(PID.TID 0000.0001) %MON dynstat_salt_sd              =   2.7006538295312E-01
(PID.TID 0000.0001) %MON dynstat_salt_del2            =   2.1135061626061E-06
(PID.TID 0000.0001) %MON advcfl_uvel_max              =   5.8709049845934E-03
(PID.TID 0000.0001) %MON advcfl_vvel_max              =   3.4181705034253E-03
(PID.TID 0000.0001) %MON advcfl_wvel_max              =   1.4276992633192E-02
(PID.TID 0000.0001) %MON advcfl_W_hf_max              =   1.4276992633192E-02
(PID.TID 0000.0001) %MON pe_b_mean                    =  -6.8128742090980E-01
(PID.TID 0000.0001) %MON ke_max                       =   1.6077765969170E-03
(PID.TID 0000.0001) %MON ke_mean                      =   1.6937979215570E-06
(PID.TID 0000.0001) %MON ke_vol                       =   4.6183203539744E+12
(PID.TID 0000.0001) // =======================================================
(PID.TID 0000.0001) // End MONITOR dynamic field statistics
(PID.TID 0000.0001) // =======================================================
(PID.TID 0000.0001) // =======================================================
(PID.TID 0000.0001) // Begin OBCS MONITOR field statistics
(PID.TID 0000.0001) // =======================================================
(PID.TID 0000.0001) %MON obc_N_vVel_max               =   4.7863425693421E-08
(PID.TID 0000.0001) %MON obc_N_vVel_min               =   4.7863425693420E-08
(PID.TID 0000.0001) %MON obc_N_vVel_mean              =   4.7863425693420E-08
(PID.TID 0000.0001) %MON obc_N_vVel_sd                =   4.5288390936029E-15
(PID.TID 0000.0001) %MON obc_N_vVel_Int               =   3.1589860957657E+00
(PID.TID 0000.0001) // =======================================================
(PID.TID 0000.0001) // End OBCS MONITOR field statistics
(PID.TID 0000.0001) // =======================================================
 cg2d: Sum(rhs),rhsMax =   3.00586751729903E+00  4.53038770586637E+02
(PID.TID 0000.0001)      cg2d_init_res =   5.89780348907422E-06
(PID.TID 0000.0001)      cg2d_iters(min,last) =      -1      78
(PID.TID 0000.0001)      cg2d_last_res =   9.73453249928723E-12
(PID.TID 0000.0001) // =======================================================
(PID.TID 0000.0001) // Begin MONITOR dynamic field statistics
(PID.TID 0000.0001) // =======================================================
(PID.TID 0000.0001) %MON time_tsnumber                =                  1462
(PID.TID 0000.0001) %MON time_secondsf                =   1.4620000000000E+05
(PID.TID 0000.0001) %MON dynstat_eta_max              =   5.7995511755120E+00
(PID.TID 0000.0001) %MON dynstat_eta_min              =  -1.4165776414681E+01
(PID.TID 0000.0001) %MON dynstat_eta_mean             =  -2.5218046751546E+00
(PID.TID 0000.0001) %MON dynstat_eta_sd               =   4.9404256621930E+00
(PID.TID 0000.0001) %MON dynstat_eta_del2             =   1.9059454673340E-01
(PID.TID 0000.0001) %MON dynstat_uvel_max             =   1.2972262695194E-02
(PID.TID 0000.0001) %MON dynstat_uvel_min             =  -5.8835216414082E-02
(PID.TID 0000.0001) %MON dynstat_uvel_mean            =   5.7167110139966E-09
(PID.TID 0000.0001) %MON dynstat_uvel_sd              =   1.7035646362820E-03
(PID.TID 0000.0001) %MON dynstat_uvel_del2            =   2.6542495744284E-06
(PID.TID 0000.0001) %MON dynstat_vvel_max             =   3.4224721894229E-02
(PID.TID 0000.0001) %MON dynstat_vvel_min             =  -1.7643529374265E-02
(PID.TID 0000.0001) %MON dynstat_vvel_mean            =   9.5606980595704E-08
(PID.TID 0000.0001) %MON dynstat_vvel_sd              =   7.4462166819333E-04
(PID.TID 0000.0001) %MON dynstat_vvel_del2            =   1.9365550675000E-06
(PID.TID 0000.0001) %MON dynstat_wvel_max             =   2.2389946794109E-03
(PID.TID 0000.0001) %MON dynstat_wvel_min             =  -2.8589086666901E-03
(PID.TID 0000.0001) %MON dynstat_wvel_mean            =   4.7696722353599E-10
(PID.TID 0000.0001) %MON dynstat_wvel_sd              =   3.7651833983539E-05
(PID.TID 0000.0001) %MON dynstat_wvel_del2            =   1.4312560566855E-07
(PID.TID 0000.0001) %MON dynstat_theta_max            =   1.2000000000000E+00
(PID.TID 0000.0001) %MON dynstat_theta_min            =  -1.0000000000000E+00
(PID.TID 0000.0001) %MON dynstat_theta_mean           =   5.6485000844609E-01
(PID.TID 0000.0001) %MON dynstat_theta_sd             =   8.4881355618512E-01
(PID.TID 0000.0001) %MON dynstat_theta_del2           =   5.3429571233280E-06
(PID.TID 0000.0001) %MON dynstat_salt_max             =   3.4700000000000E+01
(PID.TID 0000.0001) %MON dynstat_salt_min             =   3.4000000000000E+01
(PID.TID 0000.0001) %MON dynstat_salt_mean            =   3.4497854103857E+01
(PID.TID 0000.0001) %MON dynstat_salt_sd              =   2.7006518494208E-01
(PID.TID 0000.0001) %MON dynstat_salt_del2            =   2.1170933877306E-06
(PID.TID 0000.0001) %MON advcfl_uvel_max              =   5.8835216414082E-03
(PID.TID 0000.0001) %MON advcfl_vvel_max              =   3.4224721894229E-03
(PID.TID 0000.0001) %MON advcfl_wvel_max              =   1.4294543333450E-02
(PID.TID 0000.0001) %MON advcfl_W_hf_max              =   1.4294543333450E-02
(PID.TID 0000.0001) %MON pe_b_mean                    =  -6.8128421718987E-01
(PID.TID 0000.0001) %MON ke_max                       =   1.6145967057441E-03
(PID.TID 0000.0001) %MON ke_mean                      =   1.7010111584586E-06
(PID.TID 0000.0001) %MON ke_vol                       =   4.6183204170417E+12
(PID.TID 0000.0001) // =======================================================
(PID.TID 0000.0001) // End MONITOR dynamic field statistics
(PID.TID 0000.0001) // =======================================================
(PID.TID 0000.0001) // =======================================================
(PID.TID 0000.0001) // Begin OBCS MONITOR field statistics
(PID.TID 0000.0001) // =======================================================
(PID.TID 0000.0001) %MON obc_N_vVel_max               =   4.6169935343331E-08
(PID.TID 0000.0001) %MON obc_N_vVel_min               =   4.6169935343329E-08
(PID.TID 0000.0001) %MON obc_N_vVel_mean              =   4.6169935343331E-08
(PID.TID 0000.0001) %MON obc_N_vVel_sd                =  -1.1241267899399E-28
(PID.TID 0000.0001) %MON obc_N_vVel_Int               =   3.0472157326599E+00
(PID.TID 0000.0001) // =======================================================
(PID.TID 0000.0001) // End OBCS MONITOR field statistics
(PID.TID 0000.0001) // =======================================================
 cg2d: Sum(rhs),rhsMax =   3.00585496269354E+00  4.53038748196258E+02
(PID.TID 0000.0001)      cg2d_init_res =   5.90699584108795E-06
(PID.TID 0000.0001)      cg2d_iters(min,last) =      -1      78
(PID.TID 0000.0001)      cg2d_last_res =   9.75597888670980E-12
(PID.TID 0000.0001) // =======================================================
(PID.TID 0000.0001) // Begin MONITOR dynamic field statistics
(PID.TID 0000.0001) // =======================================================
(PID.TID 0000.0001) %MON time_tsnumber                =                  1463
(PID.TID 0000.0001) %MON time_secondsf                =   1.4630000000000E+05
(PID.TID 0000.0001) %MON dynstat_eta_max              =   5.7995544954853E+00
(PID.TID 0000.0001) %MON dynstat_eta_min              =  -1.4165752218943E+01
(PID.TID 0000.0001) %MON dynstat_eta_mean             =  -2.5217940177004E+00
(PID.TID 0000.0001) %MON dynstat_eta_sd               =   4.9404225962442E+00
(PID.TID 0000.0001) %MON dynstat_eta_del2             =   1.9059457897966E-01
(PID.TID 0000.0001) %MON dynstat_uvel_max             =   1.3000622879619E-02
(PID.TID 0000.0001) %MON dynstat_uvel_min             =  -5.8961473325212E-02
(PID.TID 0000.0001) %MON dynstat_uvel_mean            =   5.7093893651962E-09
(PID.TID 0000.0001) %MON dynstat_uvel_sd              =   1.7072602848861E-03
(PID.TID 0000.0001) %MON dynstat_uvel_del2            =   2.6603218464105E-06
(PID.TID 0000.0001) %MON dynstat_vvel_max             =   3.4267740948583E-02
(PID.TID 0000.0001) %MON dynstat_vvel_min             =  -1.7688035525193E-02
(PID.TID 0000.0001) %MON dynstat_vvel_mean            =   9.4809574429872E-08
(PID.TID 0000.0001) %MON dynstat_vvel_sd              =   7.4603853661635E-04
(PID.TID 0000.0001) %MON dynstat_vvel_del2            =   1.9398747651822E-06
(PID.TID 0000.0001) %MON dynstat_wvel_max             =   2.2425856352672E-03
(PID.TID 0000.0001) %MON dynstat_wvel_min             =  -2.8623999947913E-03
(PID.TID 0000.0001) %MON dynstat_wvel_mean            =   4.8186911541428E-10
(PID.TID 0000.0001) %MON dynstat_wvel_sd              =   3.7715141031573E-05
(PID.TID 0000.0001) %MON dynstat_wvel_del2            =   1.4331105842229E-07
(PID.TID 0000.0001) %MON dynstat_theta_max            =   1.2000000000000E+00
(PID.TID 0000.0001) %MON dynstat_theta_min            =  -1.0000000000000E+00
(PID.TID 0000.0001) %MON dynstat_theta_mean           =   5.6484882175341E-01
(PID.TID 0000.0001) %MON dynstat_theta_sd             =   8.4881302777058E-01
(PID.TID 0000.0001) %MON dynstat_theta_del2           =   5.3519837047280E-06
(PID.TID 0000.0001) %MON dynstat_salt_max             =   3.4700000000000E+01
(PID.TID 0000.0001) %MON dynstat_salt_min             =   3.4000000000000E+01
(PID.TID 0000.0001) %MON dynstat_salt_mean            =   3.4497853629348E+01
(PID.TID 0000.0001) %MON dynstat_salt_sd              =   2.7006498665248E-01
(PID.TID 0000.0001) %MON dynstat_salt_del2            =   2.1206846013186E-06
(PID.TID 0000.0001) %MON advcfl_uvel_max              =   5.8961473325212E-03
(PID.TID 0000.0001) %MON advcfl_vvel_max              =   3.4267740948583E-03
(PID.TID 0000.0001) %MON advcfl_wvel_max              =   1.4311999973957E-02
(PID.TID 0000.0001) %MON advcfl_W_hf_max              =   1.4311999973957E-02
(PID.TID 0000.0001) %MON pe_b_mean                    =  -6.8128100773542E-01
(PID.TID 0000.0001) %MON ke_max                       =   1.6214398429535E-03
(PID.TID 0000.0001) %MON ke_mean                      =   1.7082512895979E-06
(PID.TID 0000.0001) %MON ke_vol                       =   4.6183204802296E+12
(PID.TID 0000.0001) // =======================================================
(PID.TID 0000.0001) // End MONITOR dynamic field statistics
(PID.TID 0000.0001) // =======================================================
(PID.TID 0000.0001) // =======================================================
(PID.TID 0000.0001) // Begin OBCS MONITOR field statistics
(PID.TID 0000.0001) // =======================================================
(PID.TID 0000.0001) %MON obc_N_vVel_max               =   4.4989532831479E-08
(PID.TID 0000.0001) %MON obc_N_vVel_min               =   4.4989532831478E-08
(PID.TID 0000.0001) %MON obc_N_vVel_mean              =   4.4989532831478E-08
(PID.TID 0000.0001) %MON obc_N_vVel_sd                =   8.2605368046888E-15
(PID.TID 0000.0001) %MON obc_N_vVel_Int               =   2.9693091668775E+00
(PID.TID 0000.0001) // =======================================================
(PID.TID 0000.0001) // End OBCS MONITOR field statistics
(PID.TID 0000.0001) // =======================================================
 cg2d: Sum(rhs),rhsMax =   3.00584238496346E+00  4.53038725844185E+02
(PID.TID 0000.0001)      cg2d_init_res =   5.91618095697514E-06
(PID.TID 0000.0001)      cg2d_iters(min,last) =      -1      78
(PID.TID 0000.0001)      cg2d_last_res =   9.77736282078463E-12
(PID.TID 0000.0001) // =======================================================
(PID.TID 0000.0001) // Begin MONITOR dynamic field statistics
(PID.TID 0000.0001) // =======================================================
(PID.TID 0000.0001) %MON time_tsnumber                =                  1464
(PID.TID 0000.0001) %MON time_secondsf                =   1.4640000000000E+05
(PID.TID 0000.0001) %MON dynstat_eta_max              =   5.7995578196613E+00
(PID.TID 0000.0001) %MON dynstat_eta_min              =  -1.4165727968015E+01
(PID.TID 0000.0001) %MON dynstat_eta_mean             =  -2.5217833410598E+00
(PID.TID 0000.0001) %MON dynstat_eta_sd               =   4.9404195252021E+00
(PID.TID 0000.0001) %MON dynstat_eta_del2             =   1.9059461128204E-01
(PID.TID 0000.0001) %MON dynstat_uvel_max             =   1.3029014851741E-02
(PID.TID 0000.0001) %MON dynstat_uvel_min             =  -5.9087820420778E-02
(PID.TID 0000.0001) %MON dynstat_uvel_mean            =   5.7008705278756E-09
(PID.TID 0000.0001) %MON dynstat_uvel_sd              =   1.7109618327212E-03
(PID.TID 0000.0001) %MON dynstat_uvel_del2            =   2.6664059927284E-06
(PID.TID 0000.0001) %MON dynstat_vvel_max             =   3.4310762116271E-02
(PID.TID 0000.0001) %MON dynstat_vvel_min             =  -1.7732601862289E-02
(PID.TID 0000.0001) %MON dynstat_vvel_mean            =   9.4595157986019E-08
(PID.TID 0000.0001) %MON dynstat_vvel_sd              =   7.4745763791069E-04
(PID.TID 0000.0001) %MON dynstat_vvel_del2            =   1.9431983372979E-06
(PID.TID 0000.0001) %MON dynstat_wvel_max             =   2.2461774430597E-03
(PID.TID 0000.0001) %MON dynstat_wvel_min             =  -2.8658723670907E-03
(PID.TID 0000.0001) %MON dynstat_wvel_mean            =   4.8683369105875E-10
(PID.TID 0000.0001) %MON dynstat_wvel_sd              =   3.7778696965113E-05
(PID.TID 0000.0001) %MON dynstat_wvel_del2            =   1.4349703845185E-07
(PID.TID 0000.0001) %MON dynstat_theta_max            =   1.2000000000000E+00
(PID.TID 0000.0001) %MON dynstat_theta_min            =  -1.0000000000000E+00
(PID.TID 0000.0001) %MON dynstat_theta_mean           =   5.6484763302198E-01
(PID.TID 0000.0001) %MON dynstat_theta_sd             =   8.4881249857822E-01
(PID.TID 0000.0001) %MON dynstat_theta_del2           =   5.3610200423077E-06
(PID.TID 0000.0001) %MON dynstat_salt_max             =   3.4700000000000E+01
(PID.TID 0000.0001) %MON dynstat_salt_min             =   3.4000000000000E+01
(PID.TID 0000.0001) %MON dynstat_salt_mean            =   3.4497853154023E+01
(PID.TID 0000.0001) %MON dynstat_salt_sd              =   2.7006478808408E-01
(PID.TID 0000.0001) %MON dynstat_salt_del2            =   2.1242797730257E-06
(PID.TID 0000.0001) %MON advcfl_uvel_max              =   5.9087820420778E-03
(PID.TID 0000.0001) %MON advcfl_vvel_max              =   3.4310762116271E-03
(PID.TID 0000.0001) %MON advcfl_wvel_max              =   1.4329361835453E-02
(PID.TID 0000.0001) %MON advcfl_W_hf_max              =   1.4329361835453E-02
(PID.TID 0000.0001) %MON pe_b_mean                    =  -6.8127779266505E-01
(PID.TID 0000.0001) %MON ke_max                       =   1.6283060407475E-03
(PID.TID 0000.0001) %MON ke_mean                      =   1.7155184018598E-06
(PID.TID 0000.0001) %MON ke_vol                       =   4.6183205435349E+12
(PID.TID 0000.0001) // =======================================================
(PID.TID 0000.0001) // End MONITOR dynamic field statistics
(PID.TID 0000.0001) // =======================================================
(PID.TID 0000.0001) // =======================================================
(PID.TID 0000.0001) // Begin OBCS MONITOR field statistics
(PID.TID 0000.0001) // =======================================================
(PID.TID 0000.0001) %MON obc_N_vVel_max               =   4.4349512125196E-08
(PID.TID 0000.0001) %MON obc_N_vVel_min               =   4.4349512125195E-08
(PID.TID 0000.0001) %MON obc_N_vVel_mean              =   4.4349512125196E-08
(PID.TID 0000.0001) %MON obc_N_vVel_sd                =  -1.7236610779079E-28
(PID.TID 0000.0001) %MON obc_N_vVel_Int               =   2.9270678002629E+00
(PID.TID 0000.0001) // =======================================================
(PID.TID 0000.0001) // End OBCS MONITOR field statistics
(PID.TID 0000.0001) // =======================================================
 cg2d: Sum(rhs),rhsMax =   3.00582978471619E+00  4.53038703545551E+02
(PID.TID 0000.0001)      cg2d_init_res =   5.92535783072549E-06
(PID.TID 0000.0001)      cg2d_iters(min,last) =      -1      78
(PID.TID 0000.0001)      cg2d_last_res =   9.79863761272138E-12
(PID.TID 0000.0001) // =======================================================
(PID.TID 0000.0001) // Begin MONITOR dynamic field statistics
(PID.TID 0000.0001) // =======================================================
(PID.TID 0000.0001) %MON time_tsnumber                =                  1465
(PID.TID 0000.0001) %MON time_secondsf                =   1.4650000000000E+05
(PID.TID 0000.0001) %MON dynstat_eta_max              =   5.7995611469602E+00
(PID.TID 0000.0001) %MON dynstat_eta_min              =  -1.4165703663002E+01
(PID.TID 0000.0001) %MON dynstat_eta_mean             =  -2.5217726458267E+00
(PID.TID 0000.0001) %MON dynstat_eta_sd               =   4.9404164492639E+00
(PID.TID 0000.0001) %MON dynstat_eta_del2             =   1.9059464364079E-01
(PID.TID 0000.0001) %MON dynstat_uvel_max             =   1.3057438547603E-02
(PID.TID 0000.0001) %MON dynstat_uvel_min             =  -5.9214257518619E-02
(PID.TID 0000.0001) %MON dynstat_uvel_mean            =   5.6916991457986E-09
(PID.TID 0000.0001) %MON dynstat_uvel_sd              =   1.7146692781913E-03
(PID.TID 0000.0001) %MON dynstat_uvel_del2            =   2.6725020277989E-06
(PID.TID 0000.0001) %MON dynstat_vvel_max             =   3.4353785314898E-02
(PID.TID 0000.0001) %MON dynstat_vvel_min             =  -1.7777227944329E-02
(PID.TID 0000.0001) %MON dynstat_vvel_mean            =   9.4971539190531E-08
(PID.TID 0000.0001) %MON dynstat_vvel_sd              =   7.4887898988457E-04
(PID.TID 0000.0001) %MON dynstat_vvel_del2            =   1.9465258471417E-06
(PID.TID 0000.0001) %MON dynstat_wvel_max             =   2.2497700852929E-03
(PID.TID 0000.0001) %MON dynstat_wvel_min             =  -2.8693256409005E-03
(PID.TID 0000.0001) %MON dynstat_wvel_mean            =   4.9176923735817E-10
(PID.TID 0000.0001) %MON dynstat_wvel_sd              =   3.7842563524701E-05
(PID.TID 0000.0001) %MON dynstat_wvel_del2            =   1.4368386952146E-07
(PID.TID 0000.0001) %MON dynstat_theta_max            =   1.2000000000000E+00
(PID.TID 0000.0001) %MON dynstat_theta_min            =  -1.0000000000000E+00
(PID.TID 0000.0001) %MON dynstat_theta_mean           =   5.6484644224914E-01
(PID.TID 0000.0001) %MON dynstat_theta_sd             =   8.4881196860732E-01
(PID.TID 0000.0001) %MON dynstat_theta_del2           =   5.3700660487759E-06
(PID.TID 0000.0001) %MON dynstat_salt_max             =   3.4700000000000E+01
(PID.TID 0000.0001) %MON dynstat_salt_min             =   3.4000000000000E+01
(PID.TID 0000.0001) %MON dynstat_salt_mean            =   3.4497852677880E+01
(PID.TID 0000.0001) %MON dynstat_salt_sd              =   2.7006458923676E-01
(PID.TID 0000.0001) %MON dynstat_salt_del2            =   2.1278788561493E-06
(PID.TID 0000.0001) %MON advcfl_uvel_max              =   5.9214257518619E-03
(PID.TID 0000.0001) %MON advcfl_vvel_max              =   3.4353785314898E-03
(PID.TID 0000.0001) %MON advcfl_wvel_max              =   1.4346628204503E-02
(PID.TID 0000.0001) %MON advcfl_W_hf_max              =   1.4346628204503E-02
(PID.TID 0000.0001) %MON pe_b_mean                    =  -6.8127457209821E-01
(PID.TID 0000.0001) %MON ke_max                       =   1.6351953271790E-03
(PID.TID 0000.0001) %MON ke_mean                      =   1.7228125796788E-06
(PID.TID 0000.0001) %MON ke_vol                       =   4.6183206069541E+12
(PID.TID 0000.0001) // =======================================================
(PID.TID 0000.0001) // End MONITOR dynamic field statistics
(PID.TID 0000.0001) // =======================================================
(PID.TID 0000.0001) // =======================================================
(PID.TID 0000.0001) // Begin OBCS MONITOR field statistics
(PID.TID 0000.0001) // =======================================================
(PID.TID 0000.0001) %MON obc_N_vVel_max               =   4.4265304840384E-08
(PID.TID 0000.0001) %MON obc_N_vVel_min               =   4.4265304840383E-08
(PID.TID 0000.0001) %MON obc_N_vVel_mean              =   4.4265304840384E-08
(PID.TID 0000.0001) %MON obc_N_vVel_sd                =  -1.2424559257231E-28
(PID.TID 0000.0001) %MON obc_N_vVel_Int               =   2.9215101194654E+00
(PID.TID 0000.0001) // =======================================================
(PID.TID 0000.0001) // End OBCS MONITOR field statistics
(PID.TID 0000.0001) // =======================================================
 cg2d: Sum(rhs),rhsMax =   3.00581716257410E+00  4.53038681313799E+02
(PID.TID 0000.0001)      cg2d_init_res =   5.93452773306791E-06
(PID.TID 0000.0001)      cg2d_iters(min,last) =      -1      78
(PID.TID 0000.0001)      cg2d_last_res =   9.81980548161210E-12
(PID.TID 0000.0001) // =======================================================
(PID.TID 0000.0001) // Begin MONITOR dynamic field statistics
(PID.TID 0000.0001) // =======================================================
(PID.TID 0000.0001) %MON time_tsnumber                =                  1466
(PID.TID 0000.0001) %MON time_secondsf                =   1.4660000000000E+05
(PID.TID 0000.0001) %MON dynstat_eta_max              =   5.7995644763152E+00
(PID.TID 0000.0001) %MON dynstat_eta_min              =  -1.4165679305002E+01
(PID.TID 0000.0001) %MON dynstat_eta_mean             =  -2.5217619325981E+00
(PID.TID 0000.0001) %MON dynstat_eta_sd               =   4.9404133686156E+00
(PID.TID 0000.0001) %MON dynstat_eta_del2             =   1.9059467605614E-01
(PID.TID 0000.0001) %MON dynstat_uvel_max             =   1.3085893906573E-02
(PID.TID 0000.0001) %MON dynstat_uvel_min             =  -5.9340784434028E-02
(PID.TID 0000.0001) %MON dynstat_uvel_mean            =   5.6824727848166E-09
(PID.TID 0000.0001) %MON dynstat_uvel_sd              =   1.7183826197015E-03
(PID.TID 0000.0001) %MON dynstat_uvel_del2            =   2.6786099661296E-06
(PID.TID 0000.0001) %MON dynstat_vvel_max             =   3.4396810460303E-02
(PID.TID 0000.0001) %MON dynstat_vvel_min             =  -1.7821913329708E-02
(PID.TID 0000.0001) %MON dynstat_vvel_mean            =   9.5933786475091E-08
(PID.TID 0000.0001) %MON dynstat_vvel_sd              =   7.5030260603753E-04
(PID.TID 0000.0001) %MON dynstat_vvel_del2            =   1.9498573358859E-06
(PID.TID 0000.0001) %MON dynstat_wvel_max             =   2.2533635449862E-03
(PID.TID 0000.0001) %MON dynstat_wvel_min             =  -2.8727596707244E-03
(PID.TID 0000.0001) %MON dynstat_wvel_mean            =   4.9658484896580E-10
(PID.TID 0000.0001) %MON dynstat_wvel_sd              =   3.7906788348582E-05
(PID.TID 0000.0001) %MON dynstat_wvel_del2            =   1.4387180516077E-07
(PID.TID 0000.0001) %MON dynstat_theta_max            =   1.2000000000000E+00
(PID.TID 0000.0001) %MON dynstat_theta_min            =  -1.0000000000000E+00
(PID.TID 0000.0001) %MON dynstat_theta_mean           =   5.6484524943221E-01
(PID.TID 0000.0001) %MON dynstat_theta_sd             =   8.4881143785534E-01
(PID.TID 0000.0001) %MON dynstat_theta_del2           =   5.3791207056621E-06
(PID.TID 0000.0001) %MON dynstat_salt_max             =   3.4700000000000E+01
(PID.TID 0000.0001) %MON dynstat_salt_min             =   3.4000000000000E+01
(PID.TID 0000.0001) %MON dynstat_salt_mean            =   3.4497852200917E+01
(PID.TID 0000.0001) %MON dynstat_salt_sd              =   2.7006439011035E-01
(PID.TID 0000.0001) %MON dynstat_salt_del2            =   2.1314818330510E-06
(PID.TID 0000.0001) %MON advcfl_uvel_max              =   5.9340784434028E-03
(PID.TID 0000.0001) %MON advcfl_vvel_max              =   3.4396810460303E-03
(PID.TID 0000.0001) %MON advcfl_wvel_max              =   1.4363798353622E-02
(PID.TID 0000.0001) %MON advcfl_W_hf_max              =   1.4363798353622E-02
(PID.TID 0000.0001) %MON pe_b_mean                    =  -6.8127134615230E-01
(PID.TID 0000.0001) %MON ke_max                       =   1.6421077297925E-03
(PID.TID 0000.0001) %MON ke_mean                      =   1.7301339044535E-06
(PID.TID 0000.0001) %MON ke_vol                       =   4.6183206704838E+12
(PID.TID 0000.0001) // =======================================================
(PID.TID 0000.0001) // End MONITOR dynamic field statistics
(PID.TID 0000.0001) // =======================================================
(PID.TID 0000.0001) // =======================================================
(PID.TID 0000.0001) // Begin OBCS MONITOR field statistics
(PID.TID 0000.0001) // =======================================================
(PID.TID 0000.0001) %MON obc_N_vVel_max               =   4.4740288918821E-08
(PID.TID 0000.0001) %MON obc_N_vVel_min               =   4.4740288918820E-08
(PID.TID 0000.0001) %MON obc_N_vVel_mean              =   4.4740288918821E-08
(PID.TID 0000.0001) %MON obc_N_vVel_sd                =  -1.1872356623576E-28
(PID.TID 0000.0001) %MON obc_N_vVel_Int               =   2.9528590686422E+00
(PID.TID 0000.0001) // =======================================================
(PID.TID 0000.0001) // End OBCS MONITOR field statistics
(PID.TID 0000.0001) // =======================================================
 cg2d: Sum(rhs),rhsMax =   3.00580451916186E+00  4.53038659160452E+02
(PID.TID 0000.0001)      cg2d_init_res =   5.94369842621681E-06
(PID.TID 0000.0001)      cg2d_iters(min,last) =      -1      78
(PID.TID 0000.0001)      cg2d_last_res =   9.84086122934176E-12
(PID.TID 0000.0001) // =======================================================
(PID.TID 0000.0001) // Begin MONITOR dynamic field statistics
(PID.TID 0000.0001) // =======================================================
(PID.TID 0000.0001) %MON time_tsnumber                =                  1467
(PID.TID 0000.0001) %MON time_secondsf                =   1.4670000000000E+05
(PID.TID 0000.0001) %MON dynstat_eta_max              =   5.7995678066963E+00
(PID.TID 0000.0001) %MON dynstat_eta_min              =  -1.4165654895085E+01
(PID.TID 0000.0001) %MON dynstat_eta_mean             =  -2.5217512019621E+00
(PID.TID 0000.0001) %MON dynstat_eta_sd               =   4.9404102834306E+00
(PID.TID 0000.0001) %MON dynstat_eta_del2             =   1.9059470852822E-01
(PID.TID 0000.0001) %MON dynstat_uvel_max             =   1.3114380866045E-02
(PID.TID 0000.0001) %MON dynstat_uvel_min             =  -5.9467400992048E-02
(PID.TID 0000.0001) %MON dynstat_uvel_mean            =   5.6737591513684E-09
(PID.TID 0000.0001) %MON dynstat_uvel_sd              =   1.7221018556205E-03
(PID.TID 0000.0001) %MON dynstat_uvel_del2            =   2.6847298225741E-06
(PID.TID 0000.0001) %MON dynstat_vvel_max             =   3.4439837466732E-02
(PID.TID 0000.0001) %MON dynstat_vvel_min             =  -1.7866657595690E-02
(PID.TID 0000.0001) %MON dynstat_vvel_mean            =   9.7464419767484E-08
(PID.TID 0000.0001) %MON dynstat_vvel_sd              =   7.5172849460531E-04
(PID.TID 0000.0001) %MON dynstat_vvel_del2            =   1.9531928188170E-06
(PID.TID 0000.0001) %MON dynstat_wvel_max             =   2.2569578054539E-03
(PID.TID 0000.0001) %MON dynstat_wvel_min             =  -2.8761743042196E-03
(PID.TID 0000.0001) %MON dynstat_wvel_mean            =   5.0119321147378E-10
(PID.TID 0000.0001) %MON dynstat_wvel_sd              =   3.7971402371696E-05
(PID.TID 0000.0001) %MON dynstat_wvel_del2            =   1.4406101283689E-07
(PID.TID 0000.0001) %MON dynstat_theta_max            =   1.2000000000000E+00
(PID.TID 0000.0001) %MON dynstat_theta_min            =  -1.0000000000000E+00
(PID.TID 0000.0001) %MON dynstat_theta_mean           =   5.6484405456862E-01
(PID.TID 0000.0001) %MON dynstat_theta_sd             =   8.4881090632170E-01
(PID.TID 0000.0001) %MON dynstat_theta_del2           =   5.3881840392400E-06
(PID.TID 0000.0001) %MON dynstat_salt_max             =   3.4700000000000E+01
(PID.TID 0000.0001) %MON dynstat_salt_min             =   3.4000000000000E+01
(PID.TID 0000.0001) %MON dynstat_salt_mean            =   3.4497851723135E+01
(PID.TID 0000.0001) %MON dynstat_salt_sd              =   2.7006419070344E-01
(PID.TID 0000.0001) %MON dynstat_salt_del2            =   2.1350880841195E-06
(PID.TID 0000.0001) %MON advcfl_uvel_max              =   5.9467400992048E-03
(PID.TID 0000.0001) %MON advcfl_vvel_max              =   3.4439837466732E-03
(PID.TID 0000.0001) %MON advcfl_wvel_max              =   1.4380871521098E-02
(PID.TID 0000.0001) %MON advcfl_W_hf_max              =   1.4380871521098E-02
(PID.TID 0000.0001) %MON pe_b_mean                    =  -6.8126811494056E-01
(PID.TID 0000.0001) %MON ke_max                       =   1.6490432759757E-03
(PID.TID 0000.0001) %MON ke_mean                      =   1.7374824537352E-06
(PID.TID 0000.0001) %MON ke_vol                       =   4.6183207341204E+12
(PID.TID 0000.0001) // =======================================================
(PID.TID 0000.0001) // End MONITOR dynamic field statistics
(PID.TID 0000.0001) // =======================================================
(PID.TID 0000.0001) // =======================================================
(PID.TID 0000.0001) // Begin OBCS MONITOR field statistics
(PID.TID 0000.0001) // =======================================================
(PID.TID 0000.0001) %MON obc_N_vVel_max               =   4.5765797991975E-08
(PID.TID 0000.0001) %MON obc_N_vVel_min               =   4.5765797991974E-08
(PID.TID 0000.0001) %MON obc_N_vVel_mean              =   4.5765797991974E-08
(PID.TID 0000.0001) %MON obc_N_vVel_sd                =   1.3542900740384E-14
(PID.TID 0000.0001) %MON obc_N_vVel_Int               =   3.0205426674703E+00
(PID.TID 0000.0001) // =======================================================
(PID.TID 0000.0001) // End OBCS MONITOR field statistics
(PID.TID 0000.0001) // =======================================================
 cg2d: Sum(rhs),rhsMax =   3.00579185509020E+00  4.53038637094921E+02
(PID.TID 0000.0001)      cg2d_init_res =   5.95287443757873E-06
(PID.TID 0000.0001)      cg2d_iters(min,last) =      -1      78
(PID.TID 0000.0001)      cg2d_last_res =   9.86180653243518E-12
(PID.TID 0000.0001) // =======================================================
(PID.TID 0000.0001) // Begin MONITOR dynamic field statistics
(PID.TID 0000.0001) // =======================================================
(PID.TID 0000.0001) %MON time_tsnumber                =                  1468
(PID.TID 0000.0001) %MON time_secondsf                =   1.4680000000000E+05
(PID.TID 0000.0001) %MON dynstat_eta_max              =   5.7995711371201E+00
(PID.TID 0000.0001) %MON dynstat_eta_min              =  -1.4165630434235E+01
(PID.TID 0000.0001) %MON dynstat_eta_mean             =  -2.5217404544835E+00
(PID.TID 0000.0001) %MON dynstat_eta_sd               =   4.9404071938595E+00
(PID.TID 0000.0001) %MON dynstat_eta_del2             =   1.9059474105691E-01
(PID.TID 0000.0001) %MON dynstat_uvel_max             =   1.3142899361375E-02
(PID.TID 0000.0001) %MON dynstat_uvel_min             =  -5.9594107024822E-02
(PID.TID 0000.0001) %MON dynstat_uvel_mean            =   5.6660966292751E-09
(PID.TID 0000.0001) %MON dynstat_uvel_sd              =   1.7258269843836E-03
(PID.TID 0000.0001) %MON dynstat_uvel_del2            =   2.6908616097975E-06
(PID.TID 0000.0001) %MON dynstat_vvel_max             =   3.4482866246525E-02
(PID.TID 0000.0001) %MON dynstat_vvel_min             =  -1.7911460311565E-02
(PID.TID 0000.0001) %MON dynstat_vvel_mean            =   9.9534035193012E-08
(PID.TID 0000.0001) %MON dynstat_vvel_sd              =   7.5315666069254E-04
(PID.TID 0000.0001) %MON dynstat_vvel_del2            =   1.9565322902127E-06
(PID.TID 0000.0001) %MON dynstat_wvel_max             =   2.2605528501216E-03
(PID.TID 0000.0001) %MON dynstat_wvel_min             =  -2.8795693899005E-03
(PID.TID 0000.0001) %MON dynstat_wvel_mean            =   5.0551498570289E-10
(PID.TID 0000.0001) %MON dynstat_wvel_sd              =   3.8036418447211E-05
(PID.TID 0000.0001) %MON dynstat_wvel_del2            =   1.4425156559724E-07
(PID.TID 0000.0001) %MON dynstat_theta_max            =   1.2000000000000E+00
(PID.TID 0000.0001) %MON dynstat_theta_min            =  -1.0000000000000E+00
(PID.TID 0000.0001) %MON dynstat_theta_mean           =   5.6484285765577E-01
(PID.TID 0000.0001) %MON dynstat_theta_sd             =   8.4881037400715E-01
(PID.TID 0000.0001) %MON dynstat_theta_del2           =   5.3972569934436E-06
(PID.TID 0000.0001) %MON dynstat_salt_max             =   3.4700000000000E+01
(PID.TID 0000.0001) %MON dynstat_salt_min             =   3.4000000000000E+01
(PID.TID 0000.0001) %MON dynstat_salt_mean            =   3.4497851244532E+01
(PID.TID 0000.0001) %MON dynstat_salt_sd              =   2.7006399101702E-01
(PID.TID 0000.0001) %MON dynstat_salt_del2            =   2.1386981000501E-06
(PID.TID 0000.0001) %MON advcfl_uvel_max              =   5.9594107024822E-03
(PID.TID 0000.0001) %MON advcfl_vvel_max              =   3.4482866246525E-03
(PID.TID 0000.0001) %MON advcfl_wvel_max              =   1.4397846949503E-02
(PID.TID 0000.0001) %MON advcfl_W_hf_max              =   1.4397846949503E-02
(PID.TID 0000.0001) %MON pe_b_mean                    =  -6.8126487856895E-01
(PID.TID 0000.0001) %MON ke_max                       =   1.6560019926504E-03
(PID.TID 0000.0001) %MON ke_mean                      =   1.7448583029708E-06
(PID.TID 0000.0001) %MON ke_vol                       =   4.6183207978603E+12
(PID.TID 0000.0001) // =======================================================
(PID.TID 0000.0001) // End MONITOR dynamic field statistics
(PID.TID 0000.0001) // =======================================================
(PID.TID 0000.0001) // =======================================================
(PID.TID 0000.0001) // Begin OBCS MONITOR field statistics
(PID.TID 0000.0001) // =======================================================
(PID.TID 0000.0001) %MON obc_N_vVel_max               =   4.7321473077108E-08
(PID.TID 0000.0001) %MON obc_N_vVel_min               =   4.7321473077107E-08
(PID.TID 0000.0001) %MON obc_N_vVel_mean              =   4.7321473077108E-08
(PID.TID 0000.0001) %MON obc_N_vVel_sd                =  -1.2306230121448E-28
(PID.TID 0000.0001) %MON obc_N_vVel_Int               =   3.1232172230891E+00
(PID.TID 0000.0001) // =======================================================
(PID.TID 0000.0001) // End OBCS MONITOR field statistics
(PID.TID 0000.0001) // =======================================================
 cg2d: Sum(rhs),rhsMax =   3.00577917094399E+00  4.53038615124378E+02
(PID.TID 0000.0001)      cg2d_init_res =   5.96206197023656E-06
(PID.TID 0000.0001)      cg2d_iters(min,last) =      -1      78
(PID.TID 0000.0001)      cg2d_last_res =   9.88264521189099E-12
(PID.TID 0000.0001) // =======================================================
(PID.TID 0000.0001) // Begin MONITOR dynamic field statistics
(PID.TID 0000.0001) // =======================================================
(PID.TID 0000.0001) %MON time_tsnumber                =                  1469
(PID.TID 0000.0001) %MON time_secondsf                =   1.4690000000000E+05
(PID.TID 0000.0001) %MON dynstat_eta_max              =   5.7995744666662E+00
(PID.TID 0000.0001) %MON dynstat_eta_min              =  -1.4165605923362E+01
(PID.TID 0000.0001) %MON dynstat_eta_mean             =  -2.5217296906929E+00
(PID.TID 0000.0001) %MON dynstat_eta_sd               =   4.9404041000339E+00
(PID.TID 0000.0001) %MON dynstat_eta_del2             =   1.9059477364214E-01
(PID.TID 0000.0001) %MON dynstat_uvel_max             =   1.3171449327840E-02
(PID.TID 0000.0001) %MON dynstat_uvel_min             =  -5.9720902368831E-02
(PID.TID 0000.0001) %MON dynstat_uvel_mean            =   5.6599734645702E-09
(PID.TID 0000.0001) %MON dynstat_uvel_sd              =   1.7295580043768E-03
(PID.TID 0000.0001) %MON dynstat_uvel_del2            =   2.6970053417362E-06
(PID.TID 0000.0001) %MON dynstat_vvel_max             =   3.4525896710241E-02
(PID.TID 0000.0001) %MON dynstat_vvel_min             =  -1.7956321039719E-02
(PID.TID 0000.0001) %MON dynstat_vvel_mean            =   1.0210181943285E-07
(PID.TID 0000.0001) %MON dynstat_vvel_sd              =   7.5458710275931E-04
(PID.TID 0000.0001) %MON dynstat_vvel_del2            =   1.9598757162591E-06
(PID.TID 0000.0001) %MON dynstat_wvel_max             =   2.2641486623997E-03
(PID.TID 0000.0001) %MON dynstat_wvel_min             =  -2.8829447763149E-03
(PID.TID 0000.0001) %MON dynstat_wvel_mean            =   5.0947400594324E-10
(PID.TID 0000.0001) %MON dynstat_wvel_sd              =   3.8101830790083E-05
(PID.TID 0000.0001) %MON dynstat_wvel_del2            =   1.4444343949476E-07
(PID.TID 0000.0001) %MON dynstat_theta_max            =   1.2000000000000E+00
(PID.TID 0000.0001) %MON dynstat_theta_min            =  -1.0000000000000E+00
(PID.TID 0000.0001) %MON dynstat_theta_mean           =   5.6484165869116E-01
(PID.TID 0000.0001) %MON dynstat_theta_sd             =   8.4880984091091E-01
(PID.TID 0000.0001) %MON dynstat_theta_del2           =   5.4063395803943E-06
(PID.TID 0000.0001) %MON dynstat_salt_max             =   3.4700000000000E+01
(PID.TID 0000.0001) %MON dynstat_salt_min             =   3.4000000000000E+01
(PID.TID 0000.0001) %MON dynstat_salt_mean            =   3.4497850765107E+01
(PID.TID 0000.0001) %MON dynstat_salt_sd              =   2.7006379105117E-01
(PID.TID 0000.0001) %MON dynstat_salt_del2            =   2.1423120241133E-06
(PID.TID 0000.0001) %MON advcfl_uvel_max              =   5.9720902368831E-03
(PID.TID 0000.0001) %MON advcfl_vvel_max              =   3.4525896710241E-03
(PID.TID 0000.0001) %MON advcfl_wvel_max              =   1.4414723881575E-02
(PID.TID 0000.0001) %MON advcfl_W_hf_max              =   1.4414723881575E-02
(PID.TID 0000.0001) %MON pe_b_mean                    =  -6.8126163713422E-01
(PID.TID 0000.0001) %MON ke_max                       =   1.6629839061339E-03
(PID.TID 0000.0001) %MON ke_mean                      =   1.7522615226333E-06
(PID.TID 0000.0001) %MON ke_vol                       =   4.6183208617004E+12
(PID.TID 0000.0001) // =======================================================
(PID.TID 0000.0001) // End MONITOR dynamic field statistics
(PID.TID 0000.0001) // =======================================================
(PID.TID 0000.0001) // =======================================================
(PID.TID 0000.0001) // Begin OBCS MONITOR field statistics
(PID.TID 0000.0001) // =======================================================
(PID.TID 0000.0001) %MON obc_N_vVel_max               =   4.9375788910072E-08
(PID.TID 0000.0001) %MON obc_N_vVel_min               =   4.9375788910070E-08
(PID.TID 0000.0001) %MON obc_N_vVel_mean              =   4.9375788910070E-08
(PID.TID 0000.0001) %MON obc_N_vVel_sd                =   1.4808893667369E-14
(PID.TID 0000.0001) %MON obc_N_vVel_Int               =   3.2588020680646E+00
(PID.TID 0000.0001) // =======================================================
(PID.TID 0000.0001) // End OBCS MONITOR field statistics
(PID.TID 0000.0001) // =======================================================
 cg2d: Sum(rhs),rhsMax =   3.00576646726802E+00  4.53038593253670E+02
(PID.TID 0000.0001)      cg2d_init_res =   5.97126556055558E-06
(PID.TID 0000.0001)      cg2d_iters(min,last) =      -1      78
(PID.TID 0000.0001)      cg2d_last_res =   9.90338671744518E-12
(PID.TID 0000.0001) // =======================================================
(PID.TID 0000.0001) // Begin MONITOR dynamic field statistics
(PID.TID 0000.0001) // =======================================================
(PID.TID 0000.0001) %MON time_tsnumber                =                  1470
(PID.TID 0000.0001) %MON time_secondsf                =   1.4700000000000E+05
(PID.TID 0000.0001) %MON dynstat_eta_max              =   5.7995777945186E+00
(PID.TID 0000.0001) %MON dynstat_eta_min              =  -1.4165581363250E+01
(PID.TID 0000.0001) %MON dynstat_eta_mean             =  -2.5217189110744E+00
(PID.TID 0000.0001) %MON dynstat_eta_sd               =   4.9404010020621E+00
(PID.TID 0000.0001) %MON dynstat_eta_del2             =   1.9059480628382E-01
(PID.TID 0000.0001) %MON dynstat_uvel_max             =   1.3200030701091E-02
(PID.TID 0000.0001) %MON dynstat_uvel_min             =  -5.9847786864225E-02
(PID.TID 0000.0001) %MON dynstat_uvel_mean            =   5.6558397191693E-09
(PID.TID 0000.0001) %MON dynstat_uvel_sd              =   1.7332949139600E-03
(PID.TID 0000.0001) %MON dynstat_uvel_del2            =   2.7031610328179E-06
(PID.TID 0000.0001) %MON dynstat_vvel_max             =   3.4568928767389E-02
(PID.TID 0000.0001) %MON dynstat_vvel_min             =  -1.8001239334877E-02
(PID.TID 0000.0001) %MON dynstat_vvel_mean            =   1.0511661772412E-07
(PID.TID 0000.0001) %MON dynstat_vvel_sd              =   7.5601981350120E-04
(PID.TID 0000.0001) %MON dynstat_vvel_del2            =   1.9632230392418E-06
(PID.TID 0000.0001) %MON dynstat_wvel_max             =   2.2677452255385E-03
(PID.TID 0000.0001) %MON dynstat_wvel_min             =  -2.8863003123253E-03
(PID.TID 0000.0001) %MON dynstat_wvel_mean            =   5.1300241356137E-10
(PID.TID 0000.0001) %MON dynstat_wvel_sd              =   3.8167615729689E-05
(PID.TID 0000.0001) %MON dynstat_wvel_del2            =   1.4463651907451E-07
(PID.TID 0000.0001) %MON dynstat_theta_max            =   1.2000000000000E+00
(PID.TID 0000.0001) %MON dynstat_theta_min            =  -1.0000000000000E+00
(PID.TID 0000.0001) %MON dynstat_theta_mean           =   5.6484045767231E-01
(PID.TID 0000.0001) %MON dynstat_theta_sd             =   8.4880930703179E-01
(PID.TID 0000.0001) %MON dynstat_theta_del2           =   5.4154318416711E-06
(PID.TID 0000.0001) %MON dynstat_salt_max             =   3.4700000000000E+01
(PID.TID 0000.0001) %MON dynstat_salt_min             =   3.4000000000000E+01
(PID.TID 0000.0001) %MON dynstat_salt_mean            =   3.4497850284859E+01
(PID.TID 0000.0001) %MON dynstat_salt_sd              =   2.7006359080544E-01
(PID.TID 0000.0001) %MON dynstat_salt_del2            =   2.1459298417321E-06
(PID.TID 0000.0001) %MON advcfl_uvel_max              =   5.9847786864225E-03
(PID.TID 0000.0001) %MON advcfl_vvel_max              =   3.4568928767389E-03
(PID.TID 0000.0001) %MON advcfl_wvel_max              =   1.4431501561627E-02
(PID.TID 0000.0001) %MON advcfl_W_hf_max              =   1.4431501561627E-02
(PID.TID 0000.0001) %MON pe_b_mean                    =  -6.8125839072169E-01
(PID.TID 0000.0001) %MON ke_max                       =   1.6699890421058E-03
(PID.TID 0000.0001) %MON ke_mean                      =   1.7596921788776E-06
(PID.TID 0000.0001) %MON ke_vol                       =   4.6183209256373E+12
(PID.TID 0000.0001) // =======================================================
(PID.TID 0000.0001) // End MONITOR dynamic field statistics
(PID.TID 0000.0001) // =======================================================
(PID.TID 0000.0001) // =======================================================
(PID.TID 0000.0001) // Begin OBCS MONITOR field statistics
(PID.TID 0000.0001) // =======================================================
(PID.TID 0000.0001) %MON obc_N_vVel_max               =   5.1886835949415E-08
(PID.TID 0000.0001) %MON obc_N_vVel_min               =   5.1886835949413E-08
(PID.TID 0000.0001) %MON obc_N_vVel_mean              =   5.1886835949413E-08
(PID.TID 0000.0001) %MON obc_N_vVel_sd                =   1.5020460009374E-14
(PID.TID 0000.0001) %MON obc_N_vVel_Int               =   3.4245311726613E+00
(PID.TID 0000.0001) // =======================================================
(PID.TID 0000.0001) // End OBCS MONITOR field statistics
(PID.TID 0000.0001) // =======================================================
 cg2d: Sum(rhs),rhsMax =   3.00575374455538E+00  4.53038571485234E+02
(PID.TID 0000.0001)      cg2d_init_res =   5.98049499485970E-06
(PID.TID 0000.0001)      cg2d_iters(min,last) =      -1      78
(PID.TID 0000.0001)      cg2d_last_res =   9.92406743419733E-12
(PID.TID 0000.0001) // =======================================================
(PID.TID 0000.0001) // Begin MONITOR dynamic field statistics
(PID.TID 0000.0001) // =======================================================
(PID.TID 0000.0001) %MON time_tsnumber                =                  1471
(PID.TID 0000.0001) %MON time_secondsf                =   1.4710000000000E+05
(PID.TID 0000.0001) %MON dynstat_eta_max              =   5.7995811199547E+00
(PID.TID 0000.0001) %MON dynstat_eta_min              =  -1.4165556754567E+01
(PID.TID 0000.0001) %MON dynstat_eta_mean             =  -2.5217081160551E+00
(PID.TID 0000.0001) %MON dynstat_eta_sd               =   4.9403979000249E+00
(PID.TID 0000.0001) %MON dynstat_eta_del2             =   1.9059483898183E-01
(PID.TID 0000.0001) %MON dynstat_uvel_max             =   1.3228643416830E-02
(PID.TID 0000.0001) %MON dynstat_uvel_min             =  -5.9974760355001E-02
(PID.TID 0000.0001) %MON dynstat_uvel_mean            =   5.6541126757540E-09
(PID.TID 0000.0001) %MON dynstat_uvel_sd              =   1.7370377115033E-03
(PID.TID 0000.0001) %MON dynstat_uvel_del2            =   2.7093286980069E-06
(PID.TID 0000.0001) %MON dynstat_vvel_max             =   3.4611962325906E-02
(PID.TID 0000.0001) %MON dynstat_vvel_min             =  -1.8046214743503E-02
(PID.TID 0000.0001) %MON dynstat_vvel_mean            =   1.0851814251119E-07
(PID.TID 0000.0001) %MON dynstat_vvel_sd              =   7.5745478109433E-04
(PID.TID 0000.0001) %MON dynstat_vvel_del2            =   1.9665741842792E-06
(PID.TID 0000.0001) %MON dynstat_wvel_max             =   2.2713425225546E-03
(PID.TID 0000.0001) %MON dynstat_wvel_min             =  -2.8896358471733E-03
(PID.TID 0000.0001) %MON dynstat_wvel_mean            =   5.1604308161884E-10
(PID.TID 0000.0001) %MON dynstat_wvel_sd              =   3.8233733655034E-05
(PID.TID 0000.0001) %MON dynstat_wvel_del2            =   1.4483061067179E-07
(PID.TID 0000.0001) %MON dynstat_theta_max            =   1.2000000000000E+00
(PID.TID 0000.0001) %MON dynstat_theta_min            =  -1.0000000000000E+00
(PID.TID 0000.0001) %MON dynstat_theta_mean           =   5.6483925459681E-01
(PID.TID 0000.0001) %MON dynstat_theta_sd             =   8.4880877236803E-01
(PID.TID 0000.0001) %MON dynstat_theta_del2           =   5.4245337469787E-06
(PID.TID 0000.0001) %MON dynstat_salt_max             =   3.4700000000000E+01
(PID.TID 0000.0001) %MON dynstat_salt_min             =   3.4000000000000E+01
(PID.TID 0000.0001) %MON dynstat_salt_mean            =   3.4497849803786E+01
(PID.TID 0000.0001) %MON dynstat_salt_sd              =   2.7006339027952E-01
(PID.TID 0000.0001) %MON dynstat_salt_del2            =   2.1495514598840E-06
(PID.TID 0000.0001) %MON advcfl_uvel_max              =   5.9974760355001E-03
(PID.TID 0000.0001) %MON advcfl_vvel_max              =   3.4611962325906E-03
(PID.TID 0000.0001) %MON advcfl_wvel_max              =   1.4448179235866E-02
(PID.TID 0000.0001) %MON advcfl_W_hf_max              =   1.4448179235866E-02
(PID.TID 0000.0001) %MON pe_b_mean                    =  -6.8125513940332E-01
(PID.TID 0000.0001) %MON ke_max                       =   1.6770174255944E-03
(PID.TID 0000.0001) %MON ke_mean                      =   1.7671503345033E-06
(PID.TID 0000.0001) %MON ke_vol                       =   4.6183209896682E+12
(PID.TID 0000.0001) // =======================================================
(PID.TID 0000.0001) // End MONITOR dynamic field statistics
(PID.TID 0000.0001) // =======================================================
(PID.TID 0000.0001) // =======================================================
(PID.TID 0000.0001) // Begin OBCS MONITOR field statistics
(PID.TID 0000.0001) // =======================================================
(PID.TID 0000.0001) %MON obc_N_vVel_max               =   5.4803270775994E-08
(PID.TID 0000.0001) %MON obc_N_vVel_min               =   5.4803270775993E-08
(PID.TID 0000.0001) %MON obc_N_vVel_mean              =   5.4803270775994E-08
(PID.TID 0000.0001) %MON obc_N_vVel_sd                =   2.3498992183809E-15
(PID.TID 0000.0001) %MON obc_N_vVel_Int               =   3.6170158712156E+00
(PID.TID 0000.0001) // =======================================================
(PID.TID 0000.0001) // End OBCS MONITOR field statistics
(PID.TID 0000.0001) // =======================================================
 cg2d: Sum(rhs),rhsMax =   3.00574100323584E+00  4.53038549819107E+02
(PID.TID 0000.0001)      cg2d_init_res =   5.98976932727487E-06
(PID.TID 0000.0001)      cg2d_iters(min,last) =      -1      78
(PID.TID 0000.0001)      cg2d_last_res =   9.94476247476608E-12
(PID.TID 0000.0001) // =======================================================
(PID.TID 0000.0001) // Begin MONITOR dynamic field statistics
(PID.TID 0000.0001) // =======================================================
(PID.TID 0000.0001) %MON time_tsnumber                =                  1472
(PID.TID 0000.0001) %MON time_secondsf                =   1.4720000000000E+05
(PID.TID 0000.0001) %MON dynstat_eta_max              =   5.7995844423778E+00
(PID.TID 0000.0001) %MON dynstat_eta_min              =  -1.4165532097836E+01
(PID.TID 0000.0001) %MON dynstat_eta_mean             =  -2.5216973059959E+00
(PID.TID 0000.0001) %MON dynstat_eta_sd               =   4.9403947939721E+00
(PID.TID 0000.0001) %MON dynstat_eta_del2             =   1.9059487173600E-01
(PID.TID 0000.0001) %MON dynstat_uvel_max             =   1.3257287410467E-02
(PID.TID 0000.0001) %MON dynstat_uvel_min             =  -6.0101822689209E-02
(PID.TID 0000.0001) %MON dynstat_uvel_mean            =   5.6551719944825E-09
(PID.TID 0000.0001) %MON dynstat_uvel_sd              =   1.7407863954537E-03
(PID.TID 0000.0001) %MON dynstat_uvel_del2            =   2.7155083546058E-06
(PID.TID 0000.0001) %MON dynstat_vvel_max             =   3.4654997295291E-02
(PID.TID 0000.0001) %MON dynstat_vvel_min             =  -1.8091246803920E-02
(PID.TID 0000.0001) %MON dynstat_vvel_mean            =   1.1223832320993E-07
(PID.TID 0000.0001) %MON dynstat_vvel_sd              =   7.5889199082414E-04
(PID.TID 0000.0001) %MON dynstat_vvel_del2            =   1.9699290691098E-06
(PID.TID 0000.0001) %MON dynstat_wvel_max             =   2.2749405360193E-03
(PID.TID 0000.0001) %MON dynstat_wvel_min             =  -2.8929512304169E-03
(PID.TID 0000.0001) %MON dynstat_wvel_mean            =   5.1855005293741E-10
(PID.TID 0000.0001) %MON dynstat_wvel_sd              =   3.8300132093799E-05
(PID.TID 0000.0001) %MON dynstat_wvel_del2            =   1.4502546349417E-07
(PID.TID 0000.0001) %MON dynstat_theta_max            =   1.2000000000000E+00
(PID.TID 0000.0001) %MON dynstat_theta_min            =  -1.0000000000000E+00
(PID.TID 0000.0001) %MON dynstat_theta_mean           =   5.6483804946219E-01
(PID.TID 0000.0001) %MON dynstat_theta_sd             =   8.4880823691904E-01
(PID.TID 0000.0001) %MON dynstat_theta_del2           =   5.4336455414939E-06
(PID.TID 0000.0001) %MON dynstat_salt_max             =   3.4700000000000E+01
(PID.TID 0000.0001) %MON dynstat_salt_min             =   3.4000000000000E+01
(PID.TID 0000.0001) %MON dynstat_salt_mean            =   3.4497849321889E+01
(PID.TID 0000.0001) %MON dynstat_salt_sd              =   2.7006318947327E-01
(PID.TID 0000.0001) %MON dynstat_salt_del2            =   2.1531770648178E-06
(PID.TID 0000.0001) %MON advcfl_uvel_max              =   6.0101822689209E-03
(PID.TID 0000.0001) %MON advcfl_vvel_max              =   3.4654997295291E-03
(PID.TID 0000.0001) %MON advcfl_wvel_max              =   1.4464756152085E-02
(PID.TID 0000.0001) %MON advcfl_W_hf_max              =   1.4464756152085E-02
(PID.TID 0000.0001) %MON pe_b_mean                    =  -6.8125188323602E-01
(PID.TID 0000.0001) %MON ke_max                       =   1.6840690809916E-03
(PID.TID 0000.0001) %MON ke_mean                      =   1.7746360502727E-06
(PID.TID 0000.0001) %MON ke_vol                       =   4.6183210537906E+12
(PID.TID 0000.0001) // =======================================================
(PID.TID 0000.0001) // End MONITOR dynamic field statistics
(PID.TID 0000.0001) // =======================================================
(PID.TID 0000.0001) // =======================================================
(PID.TID 0000.0001) // Begin OBCS MONITOR field statistics
(PID.TID 0000.0001) // =======================================================
(PID.TID 0000.0001) %MON obc_N_vVel_max               =   5.8065493909134E-08
(PID.TID 0000.0001) %MON obc_N_vVel_min               =   5.8065493909133E-08
(PID.TID 0000.0001) %MON obc_N_vVel_mean              =   5.8065493909133E-08
(PID.TID 0000.0001) %MON obc_N_vVel_sd                =   1.0126792072455E-14
(PID.TID 0000.0001) %MON obc_N_vVel_Int               =   3.8323225980027E+00
(PID.TID 0000.0001) // =======================================================
(PID.TID 0000.0001) // End OBCS MONITOR field statistics
(PID.TID 0000.0001) // =======================================================
 cg2d: Sum(rhs),rhsMax =   3.00572824366673E+00  4.53038528253001E+02
(PID.TID 0000.0001)      cg2d_init_res =   5.99904223319333E-06
(PID.TID 0000.0001)      cg2d_iters(min,last) =      -1      78
(PID.TID 0000.0001)      cg2d_last_res =   9.96525285337629E-12
(PID.TID 0000.0001) // =======================================================
(PID.TID 0000.0001) // Begin MONITOR dynamic field statistics
(PID.TID 0000.0001) // =======================================================
(PID.TID 0000.0001) %MON time_tsnumber                =                  1473
(PID.TID 0000.0001) %MON time_secondsf                =   1.4730000000000E+05
(PID.TID 0000.0001) %MON dynstat_eta_max              =   5.7995877613225E+00
(PID.TID 0000.0001) %MON dynstat_eta_min              =  -1.4165507393416E+01
(PID.TID 0000.0001) %MON dynstat_eta_mean             =  -2.5216864811838E+00
(PID.TID 0000.0001) %MON dynstat_eta_sd               =   4.9403916839298E+00
(PID.TID 0000.0001) %MON dynstat_eta_del2             =   1.9059490454610E-01
(PID.TID 0000.0001) %MON dynstat_uvel_max             =   1.3285962617245E-02
(PID.TID 0000.0001) %MON dynstat_uvel_min             =  -6.0228973718822E-02
(PID.TID 0000.0001) %MON dynstat_uvel_mean            =   5.6593773020162E-09
(PID.TID 0000.0001) %MON dynstat_uvel_sd              =   1.7445409641647E-03
(PID.TID 0000.0001) %MON dynstat_uvel_del2            =   2.7217000167723E-06
(PID.TID 0000.0001) %MON dynstat_vvel_max             =   3.4698033600460E-02
(PID.TID 0000.0001) %MON dynstat_vvel_min             =  -1.8136335045797E-02
(PID.TID 0000.0001) %MON dynstat_vvel_mean            =   1.1620281359966E-07
(PID.TID 0000.0001) %MON dynstat_vvel_sd              =   7.6033142268208E-04
(PID.TID 0000.0001) %MON dynstat_vvel_del2            =   1.9732875952620E-06
(PID.TID 0000.0001) %MON dynstat_wvel_max             =   2.2785392492062E-03
(PID.TID 0000.0001) %MON dynstat_wvel_min             =  -2.8962463120225E-03
(PID.TID 0000.0001) %MON dynstat_wvel_mean            =   5.2048939450233E-10
(PID.TID 0000.0001) %MON dynstat_wvel_sd              =   3.8366747539269E-05
(PID.TID 0000.0001) %MON dynstat_wvel_del2            =   1.4522077758499E-07
(PID.TID 0000.0001) %MON dynstat_theta_max            =   1.2000000000000E+00
(PID.TID 0000.0001) %MON dynstat_theta_min            =  -1.0000000000000E+00
(PID.TID 0000.0001) %MON dynstat_theta_mean           =   5.6483684226606E-01
(PID.TID 0000.0001) %MON dynstat_theta_sd             =   8.4880770068432E-01
(PID.TID 0000.0001) %MON dynstat_theta_del2           =   5.4427673878962E-06
(PID.TID 0000.0001) %MON dynstat_salt_max             =   3.4700000000000E+01
(PID.TID 0000.0001) %MON dynstat_salt_min             =   3.4000000000000E+01
(PID.TID 0000.0001) %MON dynstat_salt_mean            =   3.4497848839166E+01
(PID.TID 0000.0001) %MON dynstat_salt_sd              =   2.7006298838675E-01
(PID.TID 0000.0001) %MON dynstat_salt_del2            =   2.1568066802056E-06
(PID.TID 0000.0001) %MON advcfl_uvel_max              =   6.0228973718822E-03
(PID.TID 0000.0001) %MON advcfl_vvel_max              =   3.4698033600460E-03
(PID.TID 0000.0001) %MON advcfl_wvel_max              =   1.4481231560112E-02
(PID.TID 0000.0001) %MON advcfl_W_hf_max              =   1.4481231560112E-02
(PID.TID 0000.0001) %MON pe_b_mean                    =  -6.8124862226056E-01
(PID.TID 0000.0001) %MON ke_max                       =   1.6911440320351E-03
(PID.TID 0000.0001) %MON ke_mean                      =   1.7821493827704E-06
(PID.TID 0000.0001) %MON ke_vol                       =   4.6183211180024E+12
(PID.TID 0000.0001) // =======================================================
(PID.TID 0000.0001) // End MONITOR dynamic field statistics
(PID.TID 0000.0001) // =======================================================
(PID.TID 0000.0001) // =======================================================
(PID.TID 0000.0001) // Begin OBCS MONITOR field statistics
(PID.TID 0000.0001) // =======================================================
(PID.TID 0000.0001) %MON obc_N_vVel_max               =   6.1606980398915E-08
(PID.TID 0000.0001) %MON obc_N_vVel_min               =   6.1606980398912E-08
(PID.TID 0000.0001) %MON obc_N_vVel_mean              =   6.1606980398912E-08
(PID.TID 0000.0001) %MON obc_N_vVel_sd                =   2.0715702557245E-14
(PID.TID 0000.0001) %MON obc_N_vVel_Int               =   4.0660607063282E+00
(PID.TID 0000.0001) // =======================================================
(PID.TID 0000.0001) // End OBCS MONITOR field statistics
(PID.TID 0000.0001) // =======================================================
 cg2d: Sum(rhs),rhsMax =   3.00571546612439E+00  4.53038506782379E+02
(PID.TID 0000.0001)      cg2d_init_res =   6.00833952315101E-06
(PID.TID 0000.0001)      cg2d_iters(min,last) =      -1      78
(PID.TID 0000.0001)      cg2d_last_res =   9.98569506324890E-12
(PID.TID 0000.0001) // =======================================================
(PID.TID 0000.0001) // Begin MONITOR dynamic field statistics
(PID.TID 0000.0001) // =======================================================
(PID.TID 0000.0001) %MON time_tsnumber                =                  1474
(PID.TID 0000.0001) %MON time_secondsf                =   1.4740000000000E+05
(PID.TID 0000.0001) %MON dynstat_eta_max              =   5.7995910764647E+00
(PID.TID 0000.0001) %MON dynstat_eta_min              =  -1.4165482641503E+01
(PID.TID 0000.0001) %MON dynstat_eta_mean             =  -2.5216756418254E+00
(PID.TID 0000.0001) %MON dynstat_eta_sd               =   4.9403885698902E+00
(PID.TID 0000.0001) %MON dynstat_eta_del2             =   1.9059493741177E-01
(PID.TID 0000.0001) %MON dynstat_uvel_max             =   1.3314668972096E-02
(PID.TID 0000.0001) %MON dynstat_uvel_min             =  -6.0356213299997E-02
(PID.TID 0000.0001) %MON dynstat_uvel_mean            =   5.6669751787216E-09
(PID.TID 0000.0001) %MON dynstat_uvel_sd              =   1.7483014160052E-03
(PID.TID 0000.0001) %MON dynstat_uvel_del2            =   2.7279036988498E-06
(PID.TID 0000.0001) %MON dynstat_vvel_max             =   3.4741071135353E-02
(PID.TID 0000.0001) %MON dynstat_vvel_min             =  -1.8181478990028E-02
(PID.TID 0000.0001) %MON dynstat_vvel_mean            =   1.2033262909674E-07
(PID.TID 0000.0001) %MON dynstat_vvel_sd              =   7.6177305403666E-04
(PID.TID 0000.0001) %MON dynstat_vvel_del2            =   1.9766496619338E-06
(PID.TID 0000.0001) %MON dynstat_wvel_max             =   2.2821386449374E-03
(PID.TID 0000.0001) %MON dynstat_wvel_min             =  -2.8995209423583E-03
(PID.TID 0000.0001) %MON dynstat_wvel_mean            =   5.2183950632338E-10
(PID.TID 0000.0001) %MON dynstat_wvel_sd              =   3.8433510078490E-05
(PID.TID 0000.0001) %MON dynstat_wvel_del2            =   1.4541623554129E-07
(PID.TID 0000.0001) %MON dynstat_theta_max            =   1.2000000000000E+00
(PID.TID 0000.0001) %MON dynstat_theta_min            =  -1.0000000000000E+00
(PID.TID 0000.0001) %MON dynstat_theta_mean           =   5.6483563300592E-01
(PID.TID 0000.0001) %MON dynstat_theta_sd             =   8.4880716366400E-01
(PID.TID 0000.0001) %MON dynstat_theta_del2           =   5.4518994597231E-06
(PID.TID 0000.0001) %MON dynstat_salt_max             =   3.4700000000000E+01
(PID.TID 0000.0001) %MON dynstat_salt_min             =   3.4000000000000E+01
(PID.TID 0000.0001) %MON dynstat_salt_mean            =   3.4497848355616E+01
(PID.TID 0000.0001) %MON dynstat_salt_sd              =   2.7006278701974E-01
(PID.TID 0000.0001) %MON dynstat_salt_del2            =   2.1604403547063E-06
(PID.TID 0000.0001) %MON advcfl_uvel_max              =   6.0356213299997E-03
(PID.TID 0000.0001) %MON advcfl_vvel_max              =   3.4741071135353E-03
(PID.TID 0000.0001) %MON advcfl_wvel_max              =   1.4497604711792E-02
(PID.TID 0000.0001) %MON advcfl_W_hf_max              =   1.4497604711792E-02
(PID.TID 0000.0001) %MON pe_b_mean                    =  -6.8124535650051E-01
(PID.TID 0000.0001) %MON ke_max                       =   1.6982423018249E-03
(PID.TID 0000.0001) %MON ke_mean                      =   1.7896903865865E-06
(PID.TID 0000.0001) %MON ke_vol                       =   4.6183211823018E+12
(PID.TID 0000.0001) // =======================================================
(PID.TID 0000.0001) // End MONITOR dynamic field statistics
(PID.TID 0000.0001) // =======================================================
(PID.TID 0000.0001) // =======================================================
(PID.TID 0000.0001) // Begin OBCS MONITOR field statistics
(PID.TID 0000.0001) // =======================================================
(PID.TID 0000.0001) %MON obc_N_vVel_max               =   6.5355709009489E-08
(PID.TID 0000.0001) %MON obc_N_vVel_min               =   6.5355709009488E-08
(PID.TID 0000.0001) %MON obc_N_vVel_mean              =   6.5355709009488E-08
(PID.TID 0000.0001) %MON obc_N_vVel_sd                =   1.5099033134902E-14
(PID.TID 0000.0001) %MON obc_N_vVel_Int               =   4.3134767946262E+00
(PID.TID 0000.0001) // =======================================================
(PID.TID 0000.0001) // End OBCS MONITOR field statistics
(PID.TID 0000.0001) // =======================================================
 cg2d: Sum(rhs),rhsMax =   3.00570267079959E+00  4.53038485400597E+02
(PID.TID 0000.0001)      cg2d_init_res =   6.01766434322233E-06
(PID.TID 0000.0001)      cg2d_iters(min,last) =      -1      79
(PID.TID 0000.0001)      cg2d_last_res =   8.39976896892289E-12
(PID.TID 0000.0001) // =======================================================
(PID.TID 0000.0001) // Begin MONITOR dynamic field statistics
(PID.TID 0000.0001) // =======================================================
(PID.TID 0000.0001) %MON time_tsnumber                =                  1475
(PID.TID 0000.0001) %MON time_secondsf                =   1.4750000000000E+05
(PID.TID 0000.0001) %MON dynstat_eta_max              =   5.7995943862649E+00
(PID.TID 0000.0001) %MON dynstat_eta_min              =  -1.4165457842212E+01
(PID.TID 0000.0001) %MON dynstat_eta_mean             =  -2.5216647880437E+00
(PID.TID 0000.0001) %MON dynstat_eta_sd               =   4.9403854518264E+00
(PID.TID 0000.0001) %MON dynstat_eta_del2             =   1.9059497033322E-01
(PID.TID 0000.0001) %MON dynstat_uvel_max             =   1.3343406403193E-02
(PID.TID 0000.0001) %MON dynstat_uvel_min             =  -6.0483541291898E-02
(PID.TID 0000.0001) %MON dynstat_uvel_mean            =   5.6780555510939E-09
(PID.TID 0000.0001) %MON dynstat_uvel_sd              =   1.7520677492818E-03
(PID.TID 0000.0001) %MON dynstat_uvel_del2            =   2.7341194146180E-06
(PID.TID 0000.0001) %MON dynstat_vvel_max             =   3.4784109808161E-02
(PID.TID 0000.0001) %MON dynstat_vvel_min             =  -1.8226678134774E-02
(PID.TID 0000.0001) %MON dynstat_vvel_mean            =   1.2454564742357E-07
(PID.TID 0000.0001) %MON dynstat_vvel_sd              =   7.6321686015726E-04
(PID.TID 0000.0001) %MON dynstat_vvel_del2            =   1.9800151688369E-06
(PID.TID 0000.0001) %MON dynstat_wvel_max             =   2.2857387037131E-03
(PID.TID 0000.0001) %MON dynstat_wvel_min             =  -2.9027749765472E-03
(PID.TID 0000.0001) %MON dynstat_wvel_mean            =   5.2259707276286E-10
(PID.TID 0000.0001) %MON dynstat_wvel_sd              =   3.8500347135539E-05
(PID.TID 0000.0001) %MON dynstat_wvel_del2            =   1.4561152506050E-07
(PID.TID 0000.0001) %MON dynstat_theta_max            =   1.2000000000000E+00
(PID.TID 0000.0001) %MON dynstat_theta_min            =  -1.0000000000000E+00
(PID.TID 0000.0001) %MON dynstat_theta_mean           =   5.6483442167939E-01
(PID.TID 0000.0001) %MON dynstat_theta_sd             =   8.4880662585824E-01
(PID.TID 0000.0001) %MON dynstat_theta_del2           =   5.4610418790504E-06
(PID.TID 0000.0001) %MON dynstat_salt_max             =   3.4700000000000E+01
(PID.TID 0000.0001) %MON dynstat_salt_min             =   3.4000000000000E+01
(PID.TID 0000.0001) %MON dynstat_salt_mean            =   3.4497847871238E+01
(PID.TID 0000.0001) %MON dynstat_salt_sd              =   2.7006258537268E-01
(PID.TID 0000.0001) %MON dynstat_salt_del2            =   2.1640781167052E-06
(PID.TID 0000.0001) %MON advcfl_uvel_max              =   6.0483541291898E-03
(PID.TID 0000.0001) %MON advcfl_vvel_max              =   3.4784109808161E-03
(PID.TID 0000.0001) %MON advcfl_wvel_max              =   1.4513874882736E-02
(PID.TID 0000.0001) %MON advcfl_W_hf_max              =   1.4513874882736E-02
(PID.TID 0000.0001) %MON pe_b_mean                    =  -6.8124208596220E-01
(PID.TID 0000.0001) %MON ke_max                       =   1.7053639129150E-03
(PID.TID 0000.0001) %MON ke_mean                      =   1.7972591145619E-06
(PID.TID 0000.0001) %MON ke_vol                       =   4.6183212466876E+12
(PID.TID 0000.0001) // =======================================================
(PID.TID 0000.0001) // End MONITOR dynamic field statistics
(PID.TID 0000.0001) // =======================================================
(PID.TID 0000.0001) // =======================================================
(PID.TID 0000.0001) // Begin OBCS MONITOR field statistics
(PID.TID 0000.0001) // =======================================================
(PID.TID 0000.0001) %MON obc_N_vVel_max               =   6.9235789052251E-08
(PID.TID 0000.0001) %MON obc_N_vVel_min               =   6.9235789052249E-08
(PID.TID 0000.0001) %MON obc_N_vVel_mean              =   6.9235789052249E-08
(PID.TID 0000.0001) %MON obc_N_vVel_sd                =   1.9028587848194E-14
(PID.TID 0000.0001) %MON obc_N_vVel_Int               =   4.5695620774484E+00
(PID.TID 0000.0001) // =======================================================
(PID.TID 0000.0001) // End OBCS MONITOR field statistics
(PID.TID 0000.0001) // =======================================================
 cg2d: Sum(rhs),rhsMax =   3.00568985779046E+00  4.53038464099575E+02
(PID.TID 0000.0001)      cg2d_init_res =   6.02699117268744E-06
(PID.TID 0000.0001)      cg2d_iters(min,last) =      -1      79
(PID.TID 0000.0001)      cg2d_last_res =   8.41624568942747E-12
(PID.TID 0000.0001) // =======================================================
(PID.TID 0000.0001) // Begin MONITOR dynamic field statistics
(PID.TID 0000.0001) // =======================================================
(PID.TID 0000.0001) %MON time_tsnumber                =                  1476
(PID.TID 0000.0001) %MON time_secondsf                =   1.4760000000000E+05
(PID.TID 0000.0001) %MON dynstat_eta_max              =   5.7995976934050E+00
(PID.TID 0000.0001) %MON dynstat_eta_min              =  -1.4165432995225E+01
(PID.TID 0000.0001) %MON dynstat_eta_mean             =  -2.5216539198760E+00
(PID.TID 0000.0001) %MON dynstat_eta_sd               =   4.9403823296521E+00
(PID.TID 0000.0001) %MON dynstat_eta_del2             =   1.9059500330883E-01
(PID.TID 0000.0001) %MON dynstat_uvel_max             =   1.3372174863584E-02
(PID.TID 0000.0001) %MON dynstat_uvel_min             =  -6.0610957564229E-02
(PID.TID 0000.0001) %MON dynstat_uvel_mean            =   5.6927959417140E-09
(PID.TID 0000.0001) %MON dynstat_uvel_sd              =   1.7558399623619E-03
(PID.TID 0000.0001) %MON dynstat_uvel_del2            =   2.7403471782178E-06
(PID.TID 0000.0001) %MON dynstat_vvel_max             =   3.4827149511125E-02
(PID.TID 0000.0001) %MON dynstat_vvel_min             =  -1.8271932021998E-02
(PID.TID 0000.0001) %MON dynstat_vvel_mean            =   1.2875950090790E-07
(PID.TID 0000.0001) %MON dynstat_vvel_sd              =   7.6466281630559E-04
(PID.TID 0000.0001) %MON dynstat_vvel_del2            =   1.9833840284701E-06
(PID.TID 0000.0001) %MON dynstat_wvel_max             =   2.2893394127773E-03
(PID.TID 0000.0001) %MON dynstat_wvel_min             =  -2.9060082529181E-03
(PID.TID 0000.0001) %MON dynstat_wvel_mean            =   5.2274595710255E-10
(PID.TID 0000.0001) %MON dynstat_wvel_sd              =   3.8567187329946E-05
(PID.TID 0000.0001) %MON dynstat_wvel_del2            =   1.4580635999673E-07
(PID.TID 0000.0001) %MON dynstat_theta_max            =   1.2000000000000E+00
(PID.TID 0000.0001) %MON dynstat_theta_min            =  -1.0000000000000E+00
(PID.TID 0000.0001) %MON dynstat_theta_mean           =   5.6483320828407E-01
(PID.TID 0000.0001) %MON dynstat_theta_sd             =   8.4880608726778E-01
(PID.TID 0000.0001) %MON dynstat_theta_del2           =   5.4701947807861E-06
(PID.TID 0000.0001) %MON dynstat_salt_max             =   3.4700000000000E+01
(PID.TID 0000.0001) %MON dynstat_salt_min             =   3.4000000000000E+01
(PID.TID 0000.0001) %MON dynstat_salt_mean            =   3.4497847386031E+01
(PID.TID 0000.0001) %MON dynstat_salt_sd              =   2.7006238344581E-01
(PID.TID 0000.0001) %MON dynstat_salt_del2            =   2.1677200139922E-06
(PID.TID 0000.0001) %MON advcfl_uvel_max              =   6.0610957564229E-03
(PID.TID 0000.0001) %MON advcfl_vvel_max              =   3.4827149511125E-03
(PID.TID 0000.0001) %MON advcfl_wvel_max              =   1.4530041264590E-02
(PID.TID 0000.0001) %MON advcfl_W_hf_max              =   1.4530041264590E-02
(PID.TID 0000.0001) %MON pe_b_mean                    =  -6.8123881063384E-01
(PID.TID 0000.0001) %MON ke_max                       =   1.7125088869244E-03
(PID.TID 0000.0001) %MON ke_mean                      =   1.8048556195831E-06
(PID.TID 0000.0001) %MON ke_vol                       =   4.6183213111590E+12
(PID.TID 0000.0001) // =======================================================
(PID.TID 0000.0001) // End MONITOR dynamic field statistics
(PID.TID 0000.0001) // =======================================================
(PID.TID 0000.0001) // =======================================================
(PID.TID 0000.0001) // Begin OBCS MONITOR field statistics
(PID.TID 0000.0001) // =======================================================
(PID.TID 0000.0001) %MON obc_N_vVel_max               =   7.3170053387117E-08
(PID.TID 0000.0001) %MON obc_N_vVel_min               =   7.3170053387115E-08
(PID.TID 0000.0001) %MON obc_N_vVel_mean              =   7.3170053387117E-08
(PID.TID 0000.0001) %MON obc_N_vVel_sd                =  -3.7076462545388E-28
(PID.TID 0000.0001) %MON obc_N_vVel_Int               =   4.8292235235497E+00
(PID.TID 0000.0001) // =======================================================
(PID.TID 0000.0001) // End OBCS MONITOR field statistics
(PID.TID 0000.0001) // =======================================================
 cg2d: Sum(rhs),rhsMax =   3.00567702710963E+00  4.53038442868027E+02
(PID.TID 0000.0001)      cg2d_init_res =   6.03637047923915E-06
(PID.TID 0000.0001)      cg2d_iters(min,last) =      -1      79
(PID.TID 0000.0001)      cg2d_last_res =   8.43258096076277E-12
(PID.TID 0000.0001) // =======================================================
(PID.TID 0000.0001) // Begin MONITOR dynamic field statistics
(PID.TID 0000.0001) // =======================================================
(PID.TID 0000.0001) %MON time_tsnumber                =                  1477
(PID.TID 0000.0001) %MON time_secondsf                =   1.4770000000000E+05
(PID.TID 0000.0001) %MON dynstat_eta_max              =   5.7996009965998E+00
(PID.TID 0000.0001) %MON dynstat_eta_min              =  -1.4165408100315E+01
(PID.TID 0000.0001) %MON dynstat_eta_mean             =  -2.5216430372703E+00
(PID.TID 0000.0001) %MON dynstat_eta_sd               =   4.9403792032842E+00
(PID.TID 0000.0001) %MON dynstat_eta_del2             =   1.9059503633871E-01
(PID.TID 0000.0001) %MON dynstat_uvel_max             =   1.3400974266871E-02
(PID.TID 0000.0001) %MON dynstat_uvel_min             =  -6.0738461981060E-02
(PID.TID 0000.0001) %MON dynstat_uvel_mean            =   5.7112144851374E-09
(PID.TID 0000.0001) %MON dynstat_uvel_sd              =   1.7596180536199E-03
(PID.TID 0000.0001) %MON dynstat_uvel_del2            =   2.7465870034667E-06
(PID.TID 0000.0001) %MON dynstat_vvel_max             =   3.4870190158737E-02
(PID.TID 0000.0001) %MON dynstat_vvel_min             =  -1.8317240106320E-02
(PID.TID 0000.0001) %MON dynstat_vvel_mean            =   1.3289135349926E-07
(PID.TID 0000.0001) %MON dynstat_vvel_sd              =   7.6611089805951E-04
(PID.TID 0000.0001) %MON dynstat_vvel_del2            =   1.9867561666381E-06
(PID.TID 0000.0001) %MON dynstat_wvel_max             =   2.2929407494378E-03
(PID.TID 0000.0001) %MON dynstat_wvel_min             =  -2.9092206361835E-03
(PID.TID 0000.0001) %MON dynstat_wvel_mean            =   5.2233116013850E-10
(PID.TID 0000.0001) %MON dynstat_wvel_sd              =   3.8633963715241E-05
(PID.TID 0000.0001) %MON dynstat_wvel_del2            =   1.4600049950018E-07
(PID.TID 0000.0001) %MON dynstat_theta_max            =   1.2000000000000E+00
(PID.TID 0000.0001) %MON dynstat_theta_min            =  -1.0000000000000E+00
(PID.TID 0000.0001) %MON dynstat_theta_mean           =   5.6483199281761E-01
(PID.TID 0000.0001) %MON dynstat_theta_sd             =   8.4880554789342E-01
(PID.TID 0000.0001) %MON dynstat_theta_del2           =   5.4793584299062E-06
(PID.TID 0000.0001) %MON dynstat_salt_max             =   3.4700000000000E+01
(PID.TID 0000.0001) %MON dynstat_salt_min             =   3.4000000000000E+01
(PID.TID 0000.0001) %MON dynstat_salt_mean            =   3.4497846899994E+01
(PID.TID 0000.0001) %MON dynstat_salt_sd              =   2.7006218123944E-01
(PID.TID 0000.0001) %MON dynstat_salt_del2            =   2.1713661137079E-06
(PID.TID 0000.0001) %MON advcfl_uvel_max              =   6.0738461981060E-03
(PID.TID 0000.0001) %MON advcfl_vvel_max              =   3.4870190158737E-03
(PID.TID 0000.0001) %MON advcfl_wvel_max              =   1.4546103180917E-02
(PID.TID 0000.0001) %MON advcfl_W_hf_max              =   1.4546103180917E-02
(PID.TID 0000.0001) %MON pe_b_mean                    =  -6.8123553048645E-01
(PID.TID 0000.0001) %MON ke_max                       =   1.7196772453088E-03
(PID.TID 0000.0001) %MON ke_mean                      =   1.8124799547382E-06
(PID.TID 0000.0001) %MON ke_vol                       =   4.6183213757159E+12
(PID.TID 0000.0001) // =======================================================
(PID.TID 0000.0001) // End MONITOR dynamic field statistics
(PID.TID 0000.0001) // =======================================================
(PID.TID 0000.0001) // =======================================================
(PID.TID 0000.0001) // Begin OBCS MONITOR field statistics
(PID.TID 0000.0001) // =======================================================
(PID.TID 0000.0001) %MON obc_N_vVel_max               =   7.7077431257184E-08
(PID.TID 0000.0001) %MON obc_N_vVel_min               =   7.7077431257184E-08
(PID.TID 0000.0001) %MON obc_N_vVel_mean              =   7.7077431257184E-08
(PID.TID 0000.0001) %MON obc_N_vVel_sd                =  -2.2719194070365E-28
(PID.TID 0000.0001) %MON obc_N_vVel_Int               =   5.0871104629742E+00
(PID.TID 0000.0001) // =======================================================
(PID.TID 0000.0001) // End OBCS MONITOR field statistics
(PID.TID 0000.0001) // =======================================================
 cg2d: Sum(rhs),rhsMax =   3.00566417866968E+00  4.53038421694618E+02
(PID.TID 0000.0001)      cg2d_init_res =   6.04577464988350E-06
(PID.TID 0000.0001)      cg2d_iters(min,last) =      -1      79
(PID.TID 0000.0001)      cg2d_last_res =   8.44890363153221E-12
(PID.TID 0000.0001) // =======================================================
(PID.TID 0000.0001) // Begin MONITOR dynamic field statistics
(PID.TID 0000.0001) // =======================================================
(PID.TID 0000.0001) %MON time_tsnumber                =                  1478
(PID.TID 0000.0001) %MON time_secondsf                =   1.4780000000000E+05
(PID.TID 0000.0001) %MON dynstat_eta_max              =   5.7996042960890E+00
(PID.TID 0000.0001) %MON dynstat_eta_min              =  -1.4165383157019E+01
(PID.TID 0000.0001) %MON dynstat_eta_mean             =  -2.5216321400899E+00
(PID.TID 0000.0001) %MON dynstat_eta_sd               =   4.9403760726034E+00
(PID.TID 0000.0001) %MON dynstat_eta_del2             =   1.9059506942234E-01
(PID.TID 0000.0001) %MON dynstat_uvel_max             =   1.3429804553353E-02
(PID.TID 0000.0001) %MON dynstat_uvel_min             =  -6.0866054417513E-02
(PID.TID 0000.0001) %MON dynstat_uvel_mean            =   5.7332061315735E-09
(PID.TID 0000.0001) %MON dynstat_uvel_sd              =   1.7634020214145E-03
(PID.TID 0000.0001) %MON dynstat_uvel_del2            =   2.7528389036419E-06
(PID.TID 0000.0001) %MON dynstat_vvel_max             =   3.4913231651099E-02
(PID.TID 0000.0001) %MON dynstat_vvel_min             =  -1.8362601880574E-02
(PID.TID 0000.0001) %MON dynstat_vvel_mean            =   1.3686132493975E-07
(PID.TID 0000.0001) %MON dynstat_vvel_sd              =   7.6756108222366E-04
(PID.TID 0000.0001) %MON dynstat_vvel_del2            =   1.9901315254049E-06
(PID.TID 0000.0001) %MON dynstat_wvel_max             =   2.2965426973224E-03
(PID.TID 0000.0001) %MON dynstat_wvel_min             =  -2.9124119744578E-03
(PID.TID 0000.0001) %MON dynstat_wvel_mean            =   5.2136823663794E-10
(PID.TID 0000.0001) %MON dynstat_wvel_sd              =   3.8700616794968E-05
(PID.TID 0000.0001) %MON dynstat_wvel_del2            =   1.4619376175933E-07
(PID.TID 0000.0001) %MON dynstat_theta_max            =   1.2000000000000E+00
(PID.TID 0000.0001) %MON dynstat_theta_min            =  -1.0000000000000E+00
(PID.TID 0000.0001) %MON dynstat_theta_mean           =   5.6483077527762E-01
(PID.TID 0000.0001) %MON dynstat_theta_sd             =   8.4880500773550E-01
(PID.TID 0000.0001) %MON dynstat_theta_del2           =   5.4885327830874E-06
(PID.TID 0000.0001) %MON dynstat_salt_max             =   3.4700000000000E+01
(PID.TID 0000.0001) %MON dynstat_salt_min             =   3.4000000000000E+01
(PID.TID 0000.0001) %MON dynstat_salt_mean            =   3.4497846413126E+01
(PID.TID 0000.0001) %MON dynstat_salt_sd              =   2.7006197875372E-01
(PID.TID 0000.0001) %MON dynstat_salt_del2            =   2.1750163975931E-06
(PID.TID 0000.0001) %MON advcfl_uvel_max              =   6.0866054417513E-03
(PID.TID 0000.0001) %MON advcfl_vvel_max              =   3.4913231651099E-03
(PID.TID 0000.0001) %MON advcfl_wvel_max              =   1.4562059872289E-02
(PID.TID 0000.0001) %MON advcfl_W_hf_max              =   1.4562059872289E-02
(PID.TID 0000.0001) %MON pe_b_mean                    =  -6.8123224547419E-01
(PID.TID 0000.0001) %MON ke_max                       =   1.7268690084877E-03
(PID.TID 0000.0001) %MON ke_mean                      =   1.8201321739788E-06
(PID.TID 0000.0001) %MON ke_vol                       =   4.6183214403586E+12
(PID.TID 0000.0001) // =======================================================
(PID.TID 0000.0001) // End MONITOR dynamic field statistics
(PID.TID 0000.0001) // =======================================================
(PID.TID 0000.0001) // =======================================================
(PID.TID 0000.0001) // Begin OBCS MONITOR field statistics
(PID.TID 0000.0001) // =======================================================
(PID.TID 0000.0001) %MON obc_N_vVel_max               =   8.0882294578903E-08
(PID.TID 0000.0001) %MON obc_N_vVel_min               =   8.0882294578901E-08
(PID.TID 0000.0001) %MON obc_N_vVel_mean              =   8.0882294578901E-08
(PID.TID 0000.0001) %MON obc_N_vVel_sd                =   2.2713763052708E-14
(PID.TID 0000.0001) %MON obc_N_vVel_Int               =   5.3382314422074E+00
(PID.TID 0000.0001) // =======================================================
(PID.TID 0000.0001) // End OBCS MONITOR field statistics
(PID.TID 0000.0001) // =======================================================
 cg2d: Sum(rhs),rhsMax =   3.00565131229452E+00  4.53038400566411E+02
(PID.TID 0000.0001)      cg2d_init_res =   6.05521672432390E-06
(PID.TID 0000.0001)      cg2d_iters(min,last) =      -1      79
(PID.TID 0000.0001)      cg2d_last_res =   8.46527150510356E-12
(PID.TID 0000.0001) // =======================================================
(PID.TID 0000.0001) // Begin MONITOR dynamic field statistics
(PID.TID 0000.0001) // =======================================================
(PID.TID 0000.0001) %MON time_tsnumber                =                  1479
(PID.TID 0000.0001) %MON time_secondsf                =   1.4790000000000E+05
(PID.TID 0000.0001) %MON dynstat_eta_max              =   5.7996075922566E+00
(PID.TID 0000.0001) %MON dynstat_eta_min              =  -1.4165358164698E+01
(PID.TID 0000.0001) %MON dynstat_eta_mean             =  -2.5216212281153E+00
(PID.TID 0000.0001) %MON dynstat_eta_sd               =   4.9403729374660E+00
(PID.TID 0000.0001) %MON dynstat_eta_del2             =   1.9059510255922E-01
(PID.TID 0000.0001) %MON dynstat_uvel_max             =   1.3458665655030E-02
(PID.TID 0000.0001) %MON dynstat_uvel_min             =  -6.0993734751658E-02
(PID.TID 0000.0001) %MON dynstat_uvel_mean            =   5.7585832046843E-09
(PID.TID 0000.0001) %MON dynstat_uvel_sd              =   1.7671918641276E-03
(PID.TID 0000.0001) %MON dynstat_uvel_del2            =   2.7591028928643E-06
(PID.TID 0000.0001) %MON dynstat_vvel_max             =   3.4956273891144E-02
(PID.TID 0000.0001) %MON dynstat_vvel_min             =  -1.8408016817160E-02
(PID.TID 0000.0001) %MON dynstat_vvel_mean            =   1.4059369000477E-07
(PID.TID 0000.0001) %MON dynstat_vvel_sd              =   7.6901334798155E-04
(PID.TID 0000.0001) %MON dynstat_vvel_del2            =   1.9935100675316E-06
(PID.TID 0000.0001) %MON dynstat_wvel_max             =   2.3001452383547E-03
(PID.TID 0000.0001) %MON dynstat_wvel_min             =  -2.9155821205726E-03
(PID.TID 0000.0001) %MON dynstat_wvel_mean            =   5.1990012545533E-10
(PID.TID 0000.0001) %MON dynstat_wvel_sd              =   3.8767096633643E-05
(PID.TID 0000.0001) %MON dynstat_wvel_del2            =   1.4638603264252E-07
(PID.TID 0000.0001) %MON dynstat_theta_max            =   1.2000000000000E+00
(PID.TID 0000.0001) %MON dynstat_theta_min            =  -1.0000000000000E+00
(PID.TID 0000.0001) %MON dynstat_theta_mean           =   5.6482955566163E-01
(PID.TID 0000.0001) %MON dynstat_theta_sd             =   8.4880446679433E-01
(PID.TID 0000.0001) %MON dynstat_theta_del2           =   5.4977179597821E-06
(PID.TID 0000.0001) %MON dynstat_salt_max             =   3.4700000000000E+01
(PID.TID 0000.0001) %MON dynstat_salt_min             =   3.4000000000000E+01
(PID.TID 0000.0001) %MON dynstat_salt_mean            =   3.4497845925426E+01
(PID.TID 0000.0001) %MON dynstat_salt_sd              =   2.7006177598893E-01
(PID.TID 0000.0001) %MON dynstat_salt_del2            =   2.1786709037783E-06
(PID.TID 0000.0001) %MON advcfl_uvel_max              =   6.0993734751658E-03
(PID.TID 0000.0001) %MON advcfl_vvel_max              =   3.4956273891144E-03
(PID.TID 0000.0001) %MON advcfl_wvel_max              =   1.4577910602863E-02
(PID.TID 0000.0001) %MON advcfl_W_hf_max              =   1.4577910602863E-02
(PID.TID 0000.0001) %MON pe_b_mean                    =  -6.8122895553529E-01
(PID.TID 0000.0001) %MON ke_max                       =   1.7340841963885E-03
(PID.TID 0000.0001) %MON ke_mean                      =   1.8278123330810E-06
(PID.TID 0000.0001) %MON ke_vol                       =   4.6183215050879E+12
(PID.TID 0000.0001) // =======================================================
(PID.TID 0000.0001) // End MONITOR dynamic field statistics
(PID.TID 0000.0001) // =======================================================
(PID.TID 0000.0001) // =======================================================
(PID.TID 0000.0001) // Begin OBCS MONITOR field statistics
(PID.TID 0000.0001) // =======================================================
(PID.TID 0000.0001) %MON obc_N_vVel_max               =   8.4509903138435E-08
(PID.TID 0000.0001) %MON obc_N_vVel_min               =   8.4509903138435E-08
(PID.TID 0000.0001) %MON obc_N_vVel_mean              =   8.4509903138435E-08
(PID.TID 0000.0001) %MON obc_N_vVel_sd                =  -1.5461673742332E-28
(PID.TID 0000.0001) %MON obc_N_vVel_Int               =   5.5776536071367E+00
(PID.TID 0000.0001) // =======================================================
(PID.TID 0000.0001) // End OBCS MONITOR field statistics
(PID.TID 0000.0001) // =======================================================
 cg2d: Sum(rhs),rhsMax =   3.00563842772164E+00  4.53038379469476E+02
(PID.TID 0000.0001)      cg2d_init_res =   6.06467511636428E-06
(PID.TID 0000.0001)      cg2d_iters(min,last) =      -1      79
(PID.TID 0000.0001)      cg2d_last_res =   8.48156942652833E-12
(PID.TID 0000.0001) // =======================================================
(PID.TID 0000.0001) // Begin MONITOR dynamic field statistics
(PID.TID 0000.0001) // =======================================================
(PID.TID 0000.0001) %MON time_tsnumber                =                  1480
(PID.TID 0000.0001) %MON time_secondsf                =   1.4800000000000E+05
(PID.TID 0000.0001) %MON dynstat_eta_max              =   5.7996108855927E+00
(PID.TID 0000.0001) %MON dynstat_eta_min              =  -1.4165333122577E+01
(PID.TID 0000.0001) %MON dynstat_eta_mean             =  -2.5216103010485E+00
(PID.TID 0000.0001) %MON dynstat_eta_sd               =   4.9403697977077E+00
(PID.TID 0000.0001) %MON dynstat_eta_del2             =   1.9059513574856E-01
(PID.TID 0000.0001) %MON dynstat_uvel_max             =   1.3487557503366E-02
(PID.TID 0000.0001) %MON dynstat_uvel_min             =  -6.1121502866047E-02
(PID.TID 0000.0001) %MON dynstat_uvel_mean            =   5.7870916542427E-09
(PID.TID 0000.0001) %MON dynstat_uvel_sd              =   1.7709875799754E-03
(PID.TID 0000.0001) %MON dynstat_uvel_del2            =   2.7653789814840E-06
(PID.TID 0000.0001) %MON dynstat_vvel_max             =   3.4999316782141E-02
(PID.TID 0000.0001) %MON dynstat_vvel_min             =  -1.8453484377233E-02
(PID.TID 0000.0001) %MON dynstat_vvel_mean            =   1.4401850568753E-07
(PID.TID 0000.0001) %MON dynstat_vvel_sd              =   7.7046767748067E-04
(PID.TID 0000.0001) %MON dynstat_vvel_del2            =   1.9968917763151E-06
(PID.TID 0000.0001) %MON dynstat_wvel_max             =   2.3037483542315E-03
(PID.TID 0000.0001) %MON dynstat_wvel_min             =  -2.9187309280645E-03
(PID.TID 0000.0001) %MON dynstat_wvel_mean            =   5.1797735287145E-10
(PID.TID 0000.0001) %MON dynstat_wvel_sd              =   3.8833364251343E-05
(PID.TID 0000.0001) %MON dynstat_wvel_del2            =   1.4657726864000E-07
(PID.TID 0000.0001) %MON dynstat_theta_max            =   1.2000000000000E+00
(PID.TID 0000.0001) %MON dynstat_theta_min            =  -1.0000000000000E+00
(PID.TID 0000.0001) %MON dynstat_theta_mean           =   5.6482833396718E-01
(PID.TID 0000.0001) %MON dynstat_theta_sd             =   8.4880392506909E-01
(PID.TID 0000.0001) %MON dynstat_theta_del2           =   5.5069139505451E-06
(PID.TID 0000.0001) %MON dynstat_salt_max             =   3.4700000000000E+01
(PID.TID 0000.0001) %MON dynstat_salt_min             =   3.4000000000000E+01
(PID.TID 0000.0001) %MON dynstat_salt_mean            =   3.4497845436894E+01
(PID.TID 0000.0001) %MON dynstat_salt_sd              =   2.7006157294486E-01
(PID.TID 0000.0001) %MON dynstat_salt_del2            =   2.1823296221205E-06
(PID.TID 0000.0001) %MON advcfl_uvel_max              =   6.1121502866047E-03
(PID.TID 0000.0001) %MON advcfl_vvel_max              =   3.4999316782141E-03
(PID.TID 0000.0001) %MON advcfl_wvel_max              =   1.4593654640322E-02
(PID.TID 0000.0001) %MON advcfl_W_hf_max              =   1.4593654640322E-02
(PID.TID 0000.0001) %MON pe_b_mean                    =  -6.8122566059333E-01
(PID.TID 0000.0001) %MON ke_max                       =   1.7413228282934E-03
(PID.TID 0000.0001) %MON ke_mean                      =   1.8355204897864E-06
(PID.TID 0000.0001) %MON ke_vol                       =   4.6183215699050E+12
(PID.TID 0000.0001) // =======================================================
(PID.TID 0000.0001) // End MONITOR dynamic field statistics
(PID.TID 0000.0001) // =======================================================
(PID.TID 0000.0001) // =======================================================
(PID.TID 0000.0001) // Begin OBCS MONITOR field statistics
(PID.TID 0000.0001) // =======================================================
(PID.TID 0000.0001) %MON obc_N_vVel_max               =   8.7890196331467E-08
(PID.TID 0000.0001) %MON obc_N_vVel_min               =   8.7890196331465E-08
(PID.TID 0000.0001) %MON obc_N_vVel_mean              =   8.7890196331465E-08
(PID.TID 0000.0001) %MON obc_N_vVel_sd                =   9.4831504889037E-15
(PID.TID 0000.0001) %MON obc_N_vVel_Int               =   5.8007529578767E+00
(PID.TID 0000.0001) // =======================================================
(PID.TID 0000.0001) // End OBCS MONITOR field statistics
(PID.TID 0000.0001) // =======================================================
 cg2d: Sum(rhs),rhsMax =   3.00562552460651E+00  4.53038358389310E+02
(PID.TID 0000.0001)      cg2d_init_res =   6.07417831240599E-06
(PID.TID 0000.0001)      cg2d_iters(min,last) =      -1      79
(PID.TID 0000.0001)      cg2d_last_res =   8.49799615634593E-12
(PID.TID 0000.0001) // =======================================================
(PID.TID 0000.0001) // Begin MONITOR dynamic field statistics
(PID.TID 0000.0001) // =======================================================
(PID.TID 0000.0001) %MON time_tsnumber                =                  1481
(PID.TID 0000.0001) %MON time_secondsf                =   1.4810000000000E+05
(PID.TID 0000.0001) %MON dynstat_eta_max              =   5.7996141767018E+00
(PID.TID 0000.0001) %MON dynstat_eta_min              =  -1.4165308029761E+01
(PID.TID 0000.0001) %MON dynstat_eta_mean             =  -2.5215993585199E+00
(PID.TID 0000.0001) %MON dynstat_eta_sd               =   4.9403666531495E+00
(PID.TID 0000.0001) %MON dynstat_eta_del2             =   1.9059516899008E-01
(PID.TID 0000.0001) %MON dynstat_uvel_max             =   1.3516480029382E-02
(PID.TID 0000.0001) %MON dynstat_uvel_min             =  -6.1249358647235E-02
(PID.TID 0000.0001) %MON dynstat_uvel_mean            =   5.8184151220145E-09
(PID.TID 0000.0001) %MON dynstat_uvel_sd              =   1.7747891673473E-03
(PID.TID 0000.0001) %MON dynstat_uvel_del2            =   2.7716671837824E-06
(PID.TID 0000.0001) %MON dynstat_vvel_max             =   3.5042360227845E-02
(PID.TID 0000.0001) %MON dynstat_vvel_min             =  -1.8499004010375E-02
(PID.TID 0000.0001) %MON dynstat_vvel_mean            =   1.4707303762214E-07
(PID.TID 0000.0001) %MON dynstat_vvel_sd              =   7.7192405602484E-04
(PID.TID 0000.0001) %MON dynstat_vvel_del2            =   2.0002766530424E-06
(PID.TID 0000.0001) %MON dynstat_wvel_max             =   2.3073520265386E-03
(PID.TID 0000.0001) %MON dynstat_wvel_min             =  -2.9218582510816E-03
(PID.TID 0000.0001) %MON dynstat_wvel_mean            =   5.1566118186937E-10
(PID.TID 0000.0001) %MON dynstat_wvel_sd              =   3.8899392270747E-05
(PID.TID 0000.0001) %MON dynstat_wvel_del2            =   1.4676749248140E-07
(PID.TID 0000.0001) %MON dynstat_theta_max            =   1.2000000000000E+00
(PID.TID 0000.0001) %MON dynstat_theta_min            =  -1.0000000000000E+00
(PID.TID 0000.0001) %MON dynstat_theta_mean           =   5.6482711019168E-01
(PID.TID 0000.0001) %MON dynstat_theta_sd             =   8.4880338255991E-01
(PID.TID 0000.0001) %MON dynstat_theta_del2           =   5.5161208184518E-06
(PID.TID 0000.0001) %MON dynstat_salt_max             =   3.4700000000000E+01
(PID.TID 0000.0001) %MON dynstat_salt_min             =   3.4000000000000E+01
(PID.TID 0000.0001) %MON dynstat_salt_mean            =   3.4497844947527E+01
(PID.TID 0000.0001) %MON dynstat_salt_sd              =   2.7006136962161E-01
(PID.TID 0000.0001) %MON dynstat_salt_del2            =   2.1859925743437E-06
(PID.TID 0000.0001) %MON advcfl_uvel_max              =   6.1249358647235E-03
(PID.TID 0000.0001) %MON advcfl_vvel_max              =   3.5042360227845E-03
(PID.TID 0000.0001) %MON advcfl_wvel_max              =   1.4609291255408E-02
(PID.TID 0000.0001) %MON advcfl_W_hf_max              =   1.4609291255408E-02
(PID.TID 0000.0001) %MON pe_b_mean                    =  -6.8122236055875E-01
(PID.TID 0000.0001) %MON ke_max                       =   1.7485849227814E-03
(PID.TID 0000.0001) %MON ke_mean                      =   1.8432567045585E-06
(PID.TID 0000.0001) %MON ke_vol                       =   4.6183216348118E+12
(PID.TID 0000.0001) // =======================================================
(PID.TID 0000.0001) // End MONITOR dynamic field statistics
(PID.TID 0000.0001) // =======================================================
(PID.TID 0000.0001) // =======================================================
(PID.TID 0000.0001) // Begin OBCS MONITOR field statistics
(PID.TID 0000.0001) // =======================================================
(PID.TID 0000.0001) %MON obc_N_vVel_max               =   9.0958869603753E-08
(PID.TID 0000.0001) %MON obc_N_vVel_min               =   9.0958869603752E-08
(PID.TID 0000.0001) %MON obc_N_vVel_mean              =   9.0958869603752E-08
(PID.TID 0000.0001) %MON obc_N_vVel_sd                =   1.1304665702523E-14
(PID.TID 0000.0001) %MON obc_N_vVel_Int               =   6.0032853938477E+00
(PID.TID 0000.0001) // =======================================================
(PID.TID 0000.0001) // End OBCS MONITOR field statistics
(PID.TID 0000.0001) // =======================================================
 cg2d: Sum(rhs),rhsMax =   3.00561260253284E+00  4.53038337311064E+02
(PID.TID 0000.0001)      cg2d_init_res =   6.08371364160348E-06
(PID.TID 0000.0001)      cg2d_iters(min,last) =      -1      79
(PID.TID 0000.0001)      cg2d_last_res =   8.51446500016572E-12
(PID.TID 0000.0001) // =======================================================
(PID.TID 0000.0001) // Begin MONITOR dynamic field statistics
(PID.TID 0000.0001) // =======================================================
(PID.TID 0000.0001) %MON time_tsnumber                =                  1482
(PID.TID 0000.0001) %MON time_secondsf                =   1.4820000000000E+05
(PID.TID 0000.0001) %MON dynstat_eta_max              =   5.7996174662728E+00
(PID.TID 0000.0001) %MON dynstat_eta_min              =  -1.4165282885239E+01
(PID.TID 0000.0001) %MON dynstat_eta_mean             =  -2.5215884000975E+00
(PID.TID 0000.0001) %MON dynstat_eta_sd               =   4.9403635035996E+00
(PID.TID 0000.0001) %MON dynstat_eta_del2             =   1.9059520228329E-01
(PID.TID 0000.0001) %MON dynstat_uvel_max             =   1.3545433163430E-02
(PID.TID 0000.0001) %MON dynstat_uvel_min             =  -6.1377301986155E-02
(PID.TID 0000.0001) %MON dynstat_uvel_mean            =   5.8521821828952E-09
(PID.TID 0000.0001) %MON dynstat_uvel_sd              =   1.7785966246219E-03
(PID.TID 0000.0001) %MON dynstat_uvel_del2            =   2.7779675139791E-06
(PID.TID 0000.0001) %MON dynstat_vvel_max             =   3.5085404132595E-02
(PID.TID 0000.0001) %MON dynstat_vvel_min             =  -1.8544575154872E-02
(PID.TID 0000.0001) %MON dynstat_vvel_mean            =   1.4970304475353E-07
(PID.TID 0000.0001) %MON dynstat_vvel_sd              =   7.7338247259190E-04
(PID.TID 0000.0001) %MON dynstat_vvel_del2            =   2.0036647167086E-06
(PID.TID 0000.0001) %MON dynstat_wvel_max             =   2.3109562367286E-03
(PID.TID 0000.0001) %MON dynstat_wvel_min             =  -2.9249639445142E-03
(PID.TID 0000.0001) %MON dynstat_wvel_mean            =   5.1302130920231E-10
(PID.TID 0000.0001) %MON dynstat_wvel_sd              =   3.8965164780572E-05
(PID.TID 0000.0001) %MON dynstat_wvel_del2            =   1.4695678537654E-07
(PID.TID 0000.0001) %MON dynstat_theta_max            =   1.2000000000000E+00
(PID.TID 0000.0001) %MON dynstat_theta_min            =  -1.0000000000000E+00
(PID.TID 0000.0001) %MON dynstat_theta_mean           =   5.6482588433266E-01
(PID.TID 0000.0001) %MON dynstat_theta_sd             =   8.4880283926688E-01
(PID.TID 0000.0001) %MON dynstat_theta_del2           =   5.5253386332984E-06
(PID.TID 0000.0001) %MON dynstat_salt_max             =   3.4700000000000E+01
(PID.TID 0000.0001) %MON dynstat_salt_min             =   3.4000000000000E+01
(PID.TID 0000.0001) %MON dynstat_salt_mean            =   3.4497844457326E+01
(PID.TID 0000.0001) %MON dynstat_salt_sd              =   2.7006116601935E-01
(PID.TID 0000.0001) %MON dynstat_salt_del2            =   2.1896597716726E-06
(PID.TID 0000.0001) %MON advcfl_uvel_max              =   6.1377301986155E-03
(PID.TID 0000.0001) %MON advcfl_vvel_max              =   3.5085404132595E-03
(PID.TID 0000.0001) %MON advcfl_wvel_max              =   1.4624819722571E-02
(PID.TID 0000.0001) %MON advcfl_W_hf_max              =   1.4624819722571E-02
(PID.TID 0000.0001) %MON pe_b_mean                    =  -6.8121905533133E-01
(PID.TID 0000.0001) %MON ke_max                       =   1.7558704977760E-03
(PID.TID 0000.0001) %MON ke_mean                      =   1.8510210406894E-06
(PID.TID 0000.0001) %MON ke_vol                       =   4.6183216998104E+12
(PID.TID 0000.0001) // =======================================================
(PID.TID 0000.0001) // End MONITOR dynamic field statistics
(PID.TID 0000.0001) // =======================================================
(PID.TID 0000.0001) // =======================================================
(PID.TID 0000.0001) // Begin OBCS MONITOR field statistics
(PID.TID 0000.0001) // =======================================================
(PID.TID 0000.0001) %MON obc_N_vVel_max               =   9.3658918321064E-08
(PID.TID 0000.0001) %MON obc_N_vVel_min               =   9.3658918321062E-08
(PID.TID 0000.0001) %MON obc_N_vVel_mean              =   9.3658918321064E-08
(PID.TID 0000.0001) %MON obc_N_vVel_sd                =  -4.5911704683863E-28
(PID.TID 0000.0001) %MON obc_N_vVel_Int               =   6.1814886091902E+00
(PID.TID 0000.0001) // =======================================================
(PID.TID 0000.0001) // End OBCS MONITOR field statistics
(PID.TID 0000.0001) // =======================================================
 cg2d: Sum(rhs),rhsMax =   3.00559966102058E+00  4.53038316219889E+02
(PID.TID 0000.0001)      cg2d_init_res =   6.09328209272776E-06
(PID.TID 0000.0001)      cg2d_iters(min,last) =      -1      79
(PID.TID 0000.0001)      cg2d_last_res =   8.53096430102667E-12
(PID.TID 0000.0001) // =======================================================
(PID.TID 0000.0001) // Begin MONITOR dynamic field statistics
(PID.TID 0000.0001) // =======================================================
(PID.TID 0000.0001) %MON time_tsnumber                =                  1483
(PID.TID 0000.0001) %MON time_secondsf                =   1.4830000000000E+05
(PID.TID 0000.0001) %MON dynstat_eta_max              =   5.7996207550671E+00
(PID.TID 0000.0001) %MON dynstat_eta_min              =  -1.4165257687914E+01
(PID.TID 0000.0001) %MON dynstat_eta_mean             =  -2.5215774252960E+00
(PID.TID 0000.0001) %MON dynstat_eta_sd               =   4.9403603488566E+00
(PID.TID 0000.0001) %MON dynstat_eta_del2             =   1.9059523562767E-01
(PID.TID 0000.0001) %MON dynstat_uvel_max             =   1.3574416835251E-02
(PID.TID 0000.0001) %MON dynstat_uvel_min             =  -6.1505332778687E-02
(PID.TID 0000.0001) %MON dynstat_uvel_mean            =   5.8879767780810E-09
(PID.TID 0000.0001) %MON dynstat_uvel_sd              =   1.7824099501515E-03
(PID.TID 0000.0001) %MON dynstat_uvel_del2            =   2.7842799863603E-06
(PID.TID 0000.0001) %MON dynstat_vvel_max             =   3.5128448401186E-02
(PID.TID 0000.0001) %MON dynstat_vvel_min             =  -1.8590197237701E-02
(PID.TID 0000.0001) %MON dynstat_vvel_mean            =   1.5186389376190E-07
(PID.TID 0000.0001) %MON dynstat_vvel_sd              =   7.7484291998966E-04
(PID.TID 0000.0001) %MON dynstat_vvel_del2            =   2.0070560007695E-06
(PID.TID 0000.0001) %MON dynstat_wvel_max             =   2.3145609661259E-03
(PID.TID 0000.0001) %MON dynstat_wvel_min             =  -2.9280478777667E-03
(PID.TID 0000.0001) %MON dynstat_wvel_mean            =   5.1013324926034E-10
(PID.TID 0000.0001) %MON dynstat_wvel_sd              =   3.9030676596352E-05
(PID.TID 0000.0001) %MON dynstat_wvel_del2            =   1.4714527435809E-07
(PID.TID 0000.0001) %MON dynstat_theta_max            =   1.2000000000000E+00
(PID.TID 0000.0001) %MON dynstat_theta_min            =  -1.0000000000000E+00
(PID.TID 0000.0001) %MON dynstat_theta_mean           =   5.6482465638768E-01
(PID.TID 0000.0001) %MON dynstat_theta_sd             =   8.4880229518982E-01
(PID.TID 0000.0001) %MON dynstat_theta_del2           =   5.5345668163100E-06
(PID.TID 0000.0001) %MON dynstat_salt_max             =   3.4700000000000E+01
(PID.TID 0000.0001) %MON dynstat_salt_min             =   3.4000000000000E+01
(PID.TID 0000.0001) %MON dynstat_salt_mean            =   3.4497843966289E+01
(PID.TID 0000.0001) %MON dynstat_salt_sd              =   2.7006096213804E-01
(PID.TID 0000.0001) %MON dynstat_salt_del2            =   2.1933310034746E-06
(PID.TID 0000.0001) %MON advcfl_uvel_max              =   6.1505332778687E-03
(PID.TID 0000.0001) %MON advcfl_vvel_max              =   3.5128448401186E-03
(PID.TID 0000.0001) %MON advcfl_wvel_max              =   1.4640239388834E-02
(PID.TID 0000.0001) %MON advcfl_W_hf_max              =   1.4640239388834E-02
(PID.TID 0000.0001) %MON pe_b_mean                    =  -6.8121574480200E-01
(PID.TID 0000.0001) %MON ke_max                       =   1.7631795705699E-03
(PID.TID 0000.0001) %MON ke_mean                      =   1.8588135644191E-06
(PID.TID 0000.0001) %MON ke_vol                       =   4.6183217649034E+12
(PID.TID 0000.0001) // =======================================================
(PID.TID 0000.0001) // End MONITOR dynamic field statistics
(PID.TID 0000.0001) // =======================================================
(PID.TID 0000.0001) // =======================================================
(PID.TID 0000.0001) // Begin OBCS MONITOR field statistics
(PID.TID 0000.0001) // =======================================================
(PID.TID 0000.0001) %MON obc_N_vVel_max               =   9.5941859926657E-08
(PID.TID 0000.0001) %MON obc_N_vVel_min               =   9.5941859926657E-08
(PID.TID 0000.0001) %MON obc_N_vVel_mean              =   9.5941859926657E-08
(PID.TID 0000.0001) %MON obc_N_vVel_sd                =  -2.4770232423940E-28
(PID.TID 0000.0001) %MON obc_N_vVel_Int               =   6.3321627551593E+00
(PID.TID 0000.0001) // =======================================================
(PID.TID 0000.0001) // End OBCS MONITOR field statistics
(PID.TID 0000.0001) // =======================================================
 cg2d: Sum(rhs),rhsMax =   3.00558669953599E+00  4.53038295101232E+02
(PID.TID 0000.0001)      cg2d_init_res =   6.10286611828183E-06
(PID.TID 0000.0001)      cg2d_iters(min,last) =      -1      79
(PID.TID 0000.0001)      cg2d_last_res =   8.54740021270780E-12
(PID.TID 0000.0001) // =======================================================
(PID.TID 0000.0001) // Begin MONITOR dynamic field statistics
(PID.TID 0000.0001) // =======================================================
(PID.TID 0000.0001) %MON time_tsnumber                =                  1484
(PID.TID 0000.0001) %MON time_secondsf                =   1.4840000000000E+05
(PID.TID 0000.0001) %MON dynstat_eta_max              =   5.7996240439124E+00
(PID.TID 0000.0001) %MON dynstat_eta_min              =  -1.4165232436639E+01
(PID.TID 0000.0001) %MON dynstat_eta_mean             =  -2.5215664335865E+00
(PID.TID 0000.0001) %MON dynstat_eta_sd               =   4.9403571887114E+00
(PID.TID 0000.0001) %MON dynstat_eta_del2             =   1.9059526902257E-01
(PID.TID 0000.0001) %MON dynstat_uvel_max             =   1.3603430974045E-02
(PID.TID 0000.0001) %MON dynstat_uvel_min             =  -6.1633450926013E-02
(PID.TID 0000.0001) %MON dynstat_uvel_mean            =   5.9253543922738E-09
(PID.TID 0000.0001) %MON dynstat_uvel_sd              =   1.7862291423726E-03
(PID.TID 0000.0001) %MON dynstat_uvel_del2            =   2.7906046202666E-06
(PID.TID 0000.0001) %MON dynstat_vvel_max             =   3.5171492939259E-02
(PID.TID 0000.0001) %MON dynstat_vvel_min             =  -1.8635869671824E-02
(PID.TID 0000.0001) %MON dynstat_vvel_mean            =   1.5352145549862E-07
(PID.TID 0000.0001) %MON dynstat_vvel_sd              =   7.7630539529955E-04
(PID.TID 0000.0001) %MON dynstat_vvel_del2            =   2.0104505528956E-06
(PID.TID 0000.0001) %MON dynstat_wvel_max             =   2.3181661958976E-03
(PID.TID 0000.0001) %MON dynstat_wvel_min             =  -2.9311099351093E-03
(PID.TID 0000.0001) %MON dynstat_wvel_mean            =   5.0707716034520E-10
(PID.TID 0000.0001) %MON dynstat_wvel_sd              =   3.9095931994156E-05
(PID.TID 0000.0001) %MON dynstat_wvel_del2            =   1.4733311752607E-07
(PID.TID 0000.0001) %MON dynstat_theta_max            =   1.2000000000000E+00
(PID.TID 0000.0001) %MON dynstat_theta_min            =  -1.0000000000000E+00
(PID.TID 0000.0001) %MON dynstat_theta_mean           =   5.6482342635425E-01
(PID.TID 0000.0001) %MON dynstat_theta_sd             =   8.4880175033046E-01
(PID.TID 0000.0001) %MON dynstat_theta_del2           =   5.5438057952997E-06
(PID.TID 0000.0001) %MON dynstat_salt_max             =   3.4700000000000E+01
(PID.TID 0000.0001) %MON dynstat_salt_min             =   3.4000000000000E+01
(PID.TID 0000.0001) %MON dynstat_salt_mean            =   3.4497843474416E+01
(PID.TID 0000.0001) %MON dynstat_salt_sd              =   2.7006075797836E-01
(PID.TID 0000.0001) %MON dynstat_salt_del2            =   2.1970064507057E-06
(PID.TID 0000.0001) %MON advcfl_uvel_max              =   6.1633450926013E-03
(PID.TID 0000.0001) %MON advcfl_vvel_max              =   3.5171492939259E-03
(PID.TID 0000.0001) %MON advcfl_wvel_max              =   1.4655549675547E-02
(PID.TID 0000.0001) %MON advcfl_W_hf_max              =   1.4655549675547E-02
(PID.TID 0000.0001) %MON pe_b_mean                    =  -6.8121242885509E-01
(PID.TID 0000.0001) %MON ke_max                       =   1.7705121578421E-03
(PID.TID 0000.0001) %MON ke_mean                      =   1.8666343455022E-06
(PID.TID 0000.0001) %MON ke_vol                       =   4.6183218300937E+12
(PID.TID 0000.0001) // =======================================================
(PID.TID 0000.0001) // End MONITOR dynamic field statistics
(PID.TID 0000.0001) // =======================================================
(PID.TID 0000.0001) // =======================================================
(PID.TID 0000.0001) // Begin OBCS MONITOR field statistics
(PID.TID 0000.0001) // =======================================================
(PID.TID 0000.0001) %MON obc_N_vVel_max               =   9.7768663895570E-08
(PID.TID 0000.0001) %MON obc_N_vVel_min               =   9.7768663895570E-08
(PID.TID 0000.0001) %MON obc_N_vVel_mean              =   9.7768663895570E-08
(PID.TID 0000.0001) %MON obc_N_vVel_sd                =   1.8630587706705E-14
(PID.TID 0000.0001) %MON obc_N_vVel_Int               =   6.4527318171076E+00
(PID.TID 0000.0001) // =======================================================
(PID.TID 0000.0001) // End OBCS MONITOR field statistics
(PID.TID 0000.0001) // =======================================================
 cg2d: Sum(rhs),rhsMax =   3.00557371750355E+00  4.53038273941105E+02
(PID.TID 0000.0001)      cg2d_init_res =   6.11250271147924E-06
(PID.TID 0000.0001)      cg2d_iters(min,last) =      -1      79
(PID.TID 0000.0001)      cg2d_last_res =   8.56405991285108E-12
(PID.TID 0000.0001) // =======================================================
(PID.TID 0000.0001) // Begin MONITOR dynamic field statistics
(PID.TID 0000.0001) // =======================================================
(PID.TID 0000.0001) %MON time_tsnumber                =                  1485
(PID.TID 0000.0001) %MON time_secondsf                =   1.4850000000000E+05
(PID.TID 0000.0001) %MON dynstat_eta_max              =   5.7996273336751E+00
(PID.TID 0000.0001) %MON dynstat_eta_min              =  -1.4165207130196E+01
(PID.TID 0000.0001) %MON dynstat_eta_mean             =  -2.5215554244084E+00
(PID.TID 0000.0001) %MON dynstat_eta_sd               =   4.9403540229627E+00
(PID.TID 0000.0001) %MON dynstat_eta_del2             =   1.9059530246776E-01
(PID.TID 0000.0001) %MON dynstat_uvel_max             =   1.3632475507620E-02
(PID.TID 0000.0001) %MON dynstat_uvel_min             =  -6.1761656332408E-02
(PID.TID 0000.0001) %MON dynstat_uvel_mean            =   5.9638531220907E-09
(PID.TID 0000.0001) %MON dynstat_uvel_sd              =   1.7900541995943E-03
(PID.TID 0000.0001) %MON dynstat_uvel_del2            =   2.7969414298926E-06
(PID.TID 0000.0001) %MON dynstat_vvel_max             =   3.5214537653180E-02
(PID.TID 0000.0001) %MON dynstat_vvel_min             =  -1.8681591857433E-02
(PID.TID 0000.0001) %MON dynstat_vvel_mean            =   1.5465275112927E-07
(PID.TID 0000.0001) %MON dynstat_vvel_sd              =   7.7776989895684E-04
(PID.TID 0000.0001) %MON dynstat_vvel_del2            =   2.0138484245349E-06
(PID.TID 0000.0001) %MON dynstat_wvel_max             =   2.3217719071178E-03
(PID.TID 0000.0001) %MON dynstat_wvel_min             =  -2.9341500017487E-03
(PID.TID 0000.0001) %MON dynstat_wvel_mean            =   5.0393539058784E-10
(PID.TID 0000.0001) %MON dynstat_wvel_sd              =   3.9160943107696E-05
(PID.TID 0000.0001) %MON dynstat_wvel_del2            =   1.4752048333014E-07
(PID.TID 0000.0001) %MON dynstat_theta_max            =   1.2000000000000E+00
(PID.TID 0000.0001) %MON dynstat_theta_min            =  -1.0000000000000E+00
(PID.TID 0000.0001) %MON dynstat_theta_mean           =   5.6482219422988E-01
(PID.TID 0000.0001) %MON dynstat_theta_sd             =   8.4880120468926E-01
(PID.TID 0000.0001) %MON dynstat_theta_del2           =   5.5530554754049E-06
(PID.TID 0000.0001) %MON dynstat_salt_max             =   3.4700000000000E+01
(PID.TID 0000.0001) %MON dynstat_salt_min             =   3.4000000000000E+01
(PID.TID 0000.0001) %MON dynstat_salt_mean            =   3.4497842981704E+01
(PID.TID 0000.0001) %MON dynstat_salt_sd              =   2.7006055354055E-01
(PID.TID 0000.0001) %MON dynstat_salt_del2            =   2.2006860959718E-06
(PID.TID 0000.0001) %MON advcfl_uvel_max              =   6.1761656332408E-03
(PID.TID 0000.0001) %MON advcfl_vvel_max              =   3.5214537653180E-03
(PID.TID 0000.0001) %MON advcfl_wvel_max              =   1.4670750008743E-02
(PID.TID 0000.0001) %MON advcfl_W_hf_max              =   1.4670750008743E-02
(PID.TID 0000.0001) %MON pe_b_mean                    =  -6.8120910737072E-01
(PID.TID 0000.0001) %MON ke_max                       =   1.7778682754780E-03
(PID.TID 0000.0001) %MON ke_mean                      =   1.8744834561526E-06
(PID.TID 0000.0001) %MON ke_vol                       =   4.6183218953845E+12
(PID.TID 0000.0001) // =======================================================
(PID.TID 0000.0001) // End MONITOR dynamic field statistics
(PID.TID 0000.0001) // =======================================================
(PID.TID 0000.0001) // =======================================================
(PID.TID 0000.0001) // Begin OBCS MONITOR field statistics
(PID.TID 0000.0001) // =======================================================
(PID.TID 0000.0001) %MON obc_N_vVel_max               =   9.9110448963672E-08
(PID.TID 0000.0001) %MON obc_N_vVel_min               =   9.9110448963670E-08
(PID.TID 0000.0001) %MON obc_N_vVel_mean              =   9.9110448963670E-08
(PID.TID 0000.0001) %MON obc_N_vVel_sd                =   2.2644195468015E-14
(PID.TID 0000.0001) %MON obc_N_vVel_Int               =   6.5412896316022E+00
(PID.TID 0000.0001) // =======================================================
(PID.TID 0000.0001) // End OBCS MONITOR field statistics
(PID.TID 0000.0001) // =======================================================
 cg2d: Sum(rhs),rhsMax =   3.00556071431747E+00  4.53038252726373E+02
(PID.TID 0000.0001)      cg2d_init_res =   6.12217148903990E-06
(PID.TID 0000.0001)      cg2d_iters(min,last) =      -1      79
(PID.TID 0000.0001)      cg2d_last_res =   8.58078490755076E-12
(PID.TID 0000.0001) // =======================================================
(PID.TID 0000.0001) // Begin MONITOR dynamic field statistics
(PID.TID 0000.0001) // =======================================================
(PID.TID 0000.0001) %MON time_tsnumber                =                  1486
(PID.TID 0000.0001) %MON time_secondsf                =   1.4860000000000E+05
(PID.TID 0000.0001) %MON dynstat_eta_max              =   5.7996306252288E+00
(PID.TID 0000.0001) %MON dynstat_eta_min              =  -1.4165181767372E+01
(PID.TID 0000.0001) %MON dynstat_eta_mean             =  -2.5215443971804E+00
(PID.TID 0000.0001) %MON dynstat_eta_sd               =   4.9403508514070E+00
(PID.TID 0000.0001) %MON dynstat_eta_del2             =   1.9059533596276E-01
(PID.TID 0000.0001) %MON dynstat_uvel_max             =   1.3661550362992E-02
(PID.TID 0000.0001) %MON dynstat_uvel_min             =  -6.1889948906504E-02
(PID.TID 0000.0001) %MON dynstat_uvel_mean            =   6.0029893138098E-09
(PID.TID 0000.0001) %MON dynstat_uvel_sd              =   1.7938851201132E-03
(PID.TID 0000.0001) %MON dynstat_uvel_del2            =   2.8032904298146E-06
(PID.TID 0000.0001) %MON dynstat_vvel_max             =   3.5257582450284E-02
(PID.TID 0000.0001) %MON dynstat_vvel_min             =  -1.8727363181606E-02
(PID.TID 0000.0001) %MON dynstat_vvel_mean            =   1.5524636688807E-07
(PID.TID 0000.0001) %MON dynstat_vvel_sd              =   7.7923643492948E-04
(PID.TID 0000.0001) %MON dynstat_vvel_del2            =   2.0172496702881E-06
(PID.TID 0000.0001) %MON dynstat_wvel_max             =   2.3253780807263E-03
(PID.TID 0000.0001) %MON dynstat_wvel_min             =  -2.9371679617440E-03
(PID.TID 0000.0001) %MON dynstat_wvel_mean            =   5.0079230613172E-10
(PID.TID 0000.0001) %MON dynstat_wvel_sd              =   3.9225728186596E-05
(PID.TID 0000.0001) %MON dynstat_wvel_del2            =   1.4770753595340E-07
(PID.TID 0000.0001) %MON dynstat_theta_max            =   1.2000000000000E+00
(PID.TID 0000.0001) %MON dynstat_theta_min            =  -1.0000000000000E+00
(PID.TID 0000.0001) %MON dynstat_theta_mean           =   5.6482096001201E-01
(PID.TID 0000.0001) %MON dynstat_theta_sd             =   8.4880065826716E-01
(PID.TID 0000.0001) %MON dynstat_theta_del2           =   5.5623158359127E-06
(PID.TID 0000.0001) %MON dynstat_salt_max             =   3.4700000000000E+01
(PID.TID 0000.0001) %MON dynstat_salt_min             =   3.4000000000000E+01
(PID.TID 0000.0001) %MON dynstat_salt_mean            =   3.4497842488154E+01
(PID.TID 0000.0001) %MON dynstat_salt_sd              =   2.7006034882499E-01
(PID.TID 0000.0001) %MON dynstat_salt_del2            =   2.2043699236119E-06
(PID.TID 0000.0001) %MON advcfl_uvel_max              =   6.1889948906504E-03
(PID.TID 0000.0001) %MON advcfl_vvel_max              =   3.5257582450284E-03
(PID.TID 0000.0001) %MON advcfl_wvel_max              =   1.4685839808720E-02
(PID.TID 0000.0001) %MON advcfl_W_hf_max              =   1.4685839808720E-02
(PID.TID 0000.0001) %MON pe_b_mean                    =  -6.8120578022713E-01
(PID.TID 0000.0001) %MON ke_max                       =   1.7852479387069E-03
(PID.TID 0000.0001) %MON ke_mean                      =   1.8823609714087E-06
(PID.TID 0000.0001) %MON ke_vol                       =   4.6183219607790E+12
(PID.TID 0000.0001) // =======================================================
(PID.TID 0000.0001) // End MONITOR dynamic field statistics
(PID.TID 0000.0001) // =======================================================
(PID.TID 0000.0001) // =======================================================
(PID.TID 0000.0001) // Begin OBCS MONITOR field statistics
(PID.TID 0000.0001) // =======================================================
(PID.TID 0000.0001) %MON obc_N_vVel_max               =   9.9949050362238E-08
(PID.TID 0000.0001) %MON obc_N_vVel_min               =   9.9949050362236E-08
(PID.TID 0000.0001) %MON obc_N_vVel_mean              =   9.9949050362236E-08
(PID.TID 0000.0001) %MON obc_N_vVel_sd                =   1.6377200852867E-14
(PID.TID 0000.0001) %MON obc_N_vVel_Int               =   6.5966373239076E+00
(PID.TID 0000.0001) // =======================================================
(PID.TID 0000.0001) // End OBCS MONITOR field statistics
(PID.TID 0000.0001) // =======================================================
 cg2d: Sum(rhs),rhsMax =   3.00554768935469E+00  4.53038231445000E+02
(PID.TID 0000.0001)      cg2d_init_res =   6.13187130903470E-06
(PID.TID 0000.0001)      cg2d_iters(min,last) =      -1      79
(PID.TID 0000.0001)      cg2d_last_res =   8.59758836306062E-12
(PID.TID 0000.0001) // =======================================================
(PID.TID 0000.0001) // Begin MONITOR dynamic field statistics
(PID.TID 0000.0001) // =======================================================
(PID.TID 0000.0001) %MON time_tsnumber                =                  1487
(PID.TID 0000.0001) %MON time_secondsf                =   1.4870000000000E+05
(PID.TID 0000.0001) %MON dynstat_eta_max              =   5.7996339194554E+00
(PID.TID 0000.0001) %MON dynstat_eta_min              =  -1.4165156346950E+01
(PID.TID 0000.0001) %MON dynstat_eta_mean             =  -2.5215333513127E+00
(PID.TID 0000.0001) %MON dynstat_eta_sd               =   4.9403476738512E+00
(PID.TID 0000.0001) %MON dynstat_eta_del2             =   1.9059536950724E-01
(PID.TID 0000.0001) %MON dynstat_uvel_max             =   1.3690655466199E-02
(PID.TID 0000.0001) %MON dynstat_uvel_min             =  -6.2018328562090E-02
(PID.TID 0000.0001) %MON dynstat_uvel_mean            =   6.0422675092106E-09
(PID.TID 0000.0001) %MON dynstat_uvel_sd              =   1.7977219021985E-03
(PID.TID 0000.0001) %MON dynstat_uvel_del2            =   2.8096516346036E-06
(PID.TID 0000.0001) %MON dynstat_vvel_max             =   3.5300627238742E-02
(PID.TID 0000.0001) %MON dynstat_vvel_min             =  -1.8773183018231E-02
(PID.TID 0000.0001) %MON dynstat_vvel_mean            =   1.5530260810703E-07
(PID.TID 0000.0001) %MON dynstat_vvel_sd              =   7.8070501044347E-04
(PID.TID 0000.0001) %MON dynstat_vvel_del2            =   2.0206543443747E-06
(PID.TID 0000.0001) %MON dynstat_wvel_max             =   2.3289846975295E-03
(PID.TID 0000.0001) %MON dynstat_wvel_min             =  -2.9401636996347E-03
(PID.TID 0000.0001) %MON dynstat_wvel_mean            =   4.9773180216186E-10
(PID.TID 0000.0001) %MON dynstat_wvel_sd              =   3.9290309881111E-05
(PID.TID 0000.0001) %MON dynstat_wvel_del2            =   1.4789441888681E-07
(PID.TID 0000.0001) %MON dynstat_theta_max            =   1.2000000000000E+00
(PID.TID 0000.0001) %MON dynstat_theta_min            =  -1.0000000000000E+00
(PID.TID 0000.0001) %MON dynstat_theta_mean           =   5.6481972369799E-01
(PID.TID 0000.0001) %MON dynstat_theta_sd             =   8.4880011106529E-01
(PID.TID 0000.0001) %MON dynstat_theta_del2           =   5.5715868057509E-06
(PID.TID 0000.0001) %MON dynstat_salt_max             =   3.4700000000000E+01
(PID.TID 0000.0001) %MON dynstat_salt_min             =   3.4000000000000E+01
(PID.TID 0000.0001) %MON dynstat_salt_mean            =   3.4497841993763E+01
(PID.TID 0000.0001) %MON dynstat_salt_sd              =   2.7006014383215E-01
(PID.TID 0000.0001) %MON dynstat_salt_del2            =   2.2080579121074E-06
(PID.TID 0000.0001) %MON advcfl_uvel_max              =   6.2018328562090E-03
(PID.TID 0000.0001) %MON advcfl_vvel_max              =   3.5300627238742E-03
(PID.TID 0000.0001) %MON advcfl_wvel_max              =   1.4700818498173E-02
(PID.TID 0000.0001) %MON advcfl_W_hf_max              =   1.4700818498173E-02
(PID.TID 0000.0001) %MON pe_b_mean                    =  -6.8120244730339E-01
(PID.TID 0000.0001) %MON ke_max                       =   1.7926511621506E-03
(PID.TID 0000.0001) %MON ke_mean                      =   1.8902669689173E-06
(PID.TID 0000.0001) %MON ke_vol                       =   4.6183220262807E+12
(PID.TID 0000.0001) // =======================================================
(PID.TID 0000.0001) // End MONITOR dynamic field statistics
(PID.TID 0000.0001) // =======================================================
(PID.TID 0000.0001) // =======================================================
(PID.TID 0000.0001) // Begin OBCS MONITOR field statistics
(PID.TID 0000.0001) // =======================================================
(PID.TID 0000.0001) %MON obc_N_vVel_max               =   1.0027729576568E-07
(PID.TID 0000.0001) %MON obc_N_vVel_min               =   1.0027729576568E-07
(PID.TID 0000.0001) %MON obc_N_vVel_mean              =   1.0027729576568E-07
(PID.TID 0000.0001) %MON obc_N_vVel_sd                =   2.7719136380581E-14
(PID.TID 0000.0001) %MON obc_N_vVel_Int               =   6.6183015205347E+00
(PID.TID 0000.0001) // =======================================================
(PID.TID 0000.0001) // End OBCS MONITOR field statistics
(PID.TID 0000.0001) // =======================================================
 cg2d: Sum(rhs),rhsMax =   3.00553464198909E+00  4.53038210086237E+02
(PID.TID 0000.0001)      cg2d_init_res =   6.14160061601228E-06
(PID.TID 0000.0001)      cg2d_iters(min,last) =      -1      79
(PID.TID 0000.0001)      cg2d_last_res =   8.61446388019303E-12
(PID.TID 0000.0001) // =======================================================
(PID.TID 0000.0001) // Begin MONITOR dynamic field statistics
(PID.TID 0000.0001) // =======================================================
(PID.TID 0000.0001) %MON time_tsnumber                =                  1488
(PID.TID 0000.0001) %MON time_secondsf                =   1.4880000000000E+05
(PID.TID 0000.0001) %MON dynstat_eta_max              =   5.7996372172051E+00
(PID.TID 0000.0001) %MON dynstat_eta_min              =  -1.4165130867741E+01
(PID.TID 0000.0001) %MON dynstat_eta_mean             =  -2.5215222862202E+00
(PID.TID 0000.0001) %MON dynstat_eta_sd               =   4.9403444901154E+00
(PID.TID 0000.0001) %MON dynstat_eta_del2             =   1.9059540310105E-01
(PID.TID 0000.0001) %MON dynstat_uvel_max             =   1.3719790742128E-02
(PID.TID 0000.0001) %MON dynstat_uvel_min             =  -6.2146795217391E-02
(PID.TID 0000.0001) %MON dynstat_uvel_mean            =   6.0811936851679E-09
(PID.TID 0000.0001) %MON dynstat_uvel_sd              =   1.8015645440904E-03
(PID.TID 0000.0001) %MON dynstat_uvel_del2            =   2.8160250588868E-06
(PID.TID 0000.0001) %MON dynstat_vvel_max             =   3.5343671927596E-02
(PID.TID 0000.0001) %MON dynstat_vvel_min             =  -1.8819050727981E-02
(PID.TID 0000.0001) %MON dynstat_vvel_mean            =   1.5483340212805E-07
(PID.TID 0000.0001) %MON dynstat_vvel_sd              =   7.8217563562530E-04
(PID.TID 0000.0001) %MON dynstat_vvel_del2            =   2.0240624978095E-06
(PID.TID 0000.0001) %MON dynstat_wvel_max             =   2.3325917382242E-03
(PID.TID 0000.0001) %MON dynstat_wvel_min             =  -2.9431371006447E-03
(PID.TID 0000.0001) %MON dynstat_wvel_mean            =   4.9483522158373E-10
(PID.TID 0000.0001) %MON dynstat_wvel_sd              =   3.9354713687940E-05
(PID.TID 0000.0001) %MON dynstat_wvel_del2            =   1.4808124273214E-07
(PID.TID 0000.0001) %MON dynstat_theta_max            =   1.2000000000000E+00
(PID.TID 0000.0001) %MON dynstat_theta_min            =  -1.0000000000000E+00
(PID.TID 0000.0001) %MON dynstat_theta_mean           =   5.6481848528520E-01
(PID.TID 0000.0001) %MON dynstat_theta_sd             =   8.4879956308322E-01
(PID.TID 0000.0001) %MON dynstat_theta_del2           =   5.5808682982975E-06
(PID.TID 0000.0001) %MON dynstat_salt_max             =   3.4700000000000E+01
(PID.TID 0000.0001) %MON dynstat_salt_min             =   3.4000000000000E+01
(PID.TID 0000.0001) %MON dynstat_salt_mean            =   3.4497841498532E+01
(PID.TID 0000.0001) %MON dynstat_salt_sd              =   2.7005993856201E-01
(PID.TID 0000.0001) %MON dynstat_salt_del2            =   2.2117500400566E-06
(PID.TID 0000.0001) %MON advcfl_uvel_max              =   6.2146795217391E-03
(PID.TID 0000.0001) %MON advcfl_vvel_max              =   3.5343671927596E-03
(PID.TID 0000.0001) %MON advcfl_wvel_max              =   1.4715685503224E-02
(PID.TID 0000.0001) %MON advcfl_W_hf_max              =   1.4715685503224E-02
(PID.TID 0000.0001) %MON pe_b_mean                    =  -6.8119910848190E-01
(PID.TID 0000.0001) %MON ke_max                       =   1.8000779597378E-03
(PID.TID 0000.0001) %MON ke_mean                      =   1.8982015286757E-06
(PID.TID 0000.0001) %MON ke_vol                       =   4.6183220918932E+12
(PID.TID 0000.0001) // =======================================================
(PID.TID 0000.0001) // End MONITOR dynamic field statistics
(PID.TID 0000.0001) // =======================================================
(PID.TID 0000.0001) // =======================================================
(PID.TID 0000.0001) // Begin OBCS MONITOR field statistics
(PID.TID 0000.0001) // =======================================================
(PID.TID 0000.0001) %MON obc_N_vVel_max               =   1.0009911371786E-07
(PID.TID 0000.0001) %MON obc_N_vVel_min               =   1.0009911371786E-07
(PID.TID 0000.0001) %MON obc_N_vVel_mean              =   1.0009911371786E-07
(PID.TID 0000.0001) %MON obc_N_vVel_sd                =  -6.2635555874548E-28
(PID.TID 0000.0001) %MON obc_N_vVel_Int               =   6.6065415053788E+00
(PID.TID 0000.0001) // =======================================================
(PID.TID 0000.0001) // End OBCS MONITOR field statistics
(PID.TID 0000.0001) // =======================================================
 cg2d: Sum(rhs),rhsMax =   3.00552157160478E+00  4.53038188640844E+02
(PID.TID 0000.0001)      cg2d_init_res =   6.15135615631488E-06
(PID.TID 0000.0001)      cg2d_iters(min,last) =      -1      79
(PID.TID 0000.0001)      cg2d_last_res =   8.63141570911122E-12
(PID.TID 0000.0001) // =======================================================
(PID.TID 0000.0001) // Begin MONITOR dynamic field statistics
(PID.TID 0000.0001) // =======================================================
(PID.TID 0000.0001) %MON time_tsnumber                =                  1489
(PID.TID 0000.0001) %MON time_secondsf                =   1.4890000000000E+05
(PID.TID 0000.0001) %MON dynstat_eta_max              =   5.7996405192884E+00
(PID.TID 0000.0001) %MON dynstat_eta_min              =  -1.4165105328625E+01
(PID.TID 0000.0001) %MON dynstat_eta_mean             =  -2.5215112013348E+00
(PID.TID 0000.0001) %MON dynstat_eta_sd               =   4.9403413000342E+00
(PID.TID 0000.0001) %MON dynstat_eta_del2             =   1.9059543674399E-01
(PID.TID 0000.0001) %MON dynstat_uvel_max             =   1.3748956116865E-02
(PID.TID 0000.0001) %MON dynstat_uvel_min             =  -6.2275348794611E-02
(PID.TID 0000.0001) %MON dynstat_uvel_mean            =   6.1192855478889E-09
(PID.TID 0000.0001) %MON dynstat_uvel_sd              =   1.8054130439889E-03
(PID.TID 0000.0001) %MON dynstat_uvel_del2            =   2.8224107172199E-06
(PID.TID 0000.0001) %MON dynstat_vvel_max             =   3.5386716426658E-02
(PID.TID 0000.0001) %MON dynstat_vvel_min             =  -1.8864965658144E-02
(PID.TID 0000.0001) %MON dynstat_vvel_mean            =   1.5386194812380E-07
(PID.TID 0000.0001) %MON dynstat_vvel_sd              =   7.8364832312205E-04
(PID.TID 0000.0001) %MON dynstat_vvel_del2            =   2.0274741763667E-06
(PID.TID 0000.0001) %MON dynstat_wvel_max             =   2.3361991833967E-03
(PID.TID 0000.0001) %MON dynstat_wvel_min             =  -2.9460880507479E-03
(PID.TID 0000.0001) %MON dynstat_wvel_mean            =   4.9217985335061E-10
(PID.TID 0000.0001) %MON dynstat_wvel_sd              =   3.9418966672196E-05
(PID.TID 0000.0001) %MON dynstat_wvel_del2            =   1.4826807671628E-07
(PID.TID 0000.0001) %MON dynstat_theta_max            =   1.2000000000000E+00
(PID.TID 0000.0001) %MON dynstat_theta_min            =  -1.0000000000000E+00
(PID.TID 0000.0001) %MON dynstat_theta_mean           =   5.6481724477102E-01
(PID.TID 0000.0001) %MON dynstat_theta_sd             =   8.4879901433208E-01
(PID.TID 0000.0001) %MON dynstat_theta_del2           =   5.5901876049355E-06
(PID.TID 0000.0001) %MON dynstat_salt_max             =   3.4700000000000E+01
(PID.TID 0000.0001) %MON dynstat_salt_min             =   3.4000000000000E+01
(PID.TID 0000.0001) %MON dynstat_salt_mean            =   3.4497841002459E+01
(PID.TID 0000.0001) %MON dynstat_salt_sd              =   2.7005973301497E-01
(PID.TID 0000.0001) %MON dynstat_salt_del2            =   2.2154462791518E-06
(PID.TID 0000.0001) %MON advcfl_uvel_max              =   6.2275348794611E-03
(PID.TID 0000.0001) %MON advcfl_vvel_max              =   3.5386716426658E-03
(PID.TID 0000.0001) %MON advcfl_wvel_max              =   1.4730440253740E-02
(PID.TID 0000.0001) %MON advcfl_W_hf_max              =   1.4730440253740E-02
(PID.TID 0000.0001) %MON pe_b_mean                    =  -6.8119576365074E-01
(PID.TID 0000.0001) %MON ke_max                       =   1.8075283446652E-03
(PID.TID 0000.0001) %MON ke_mean                      =   1.9061647327344E-06
(PID.TID 0000.0001) %MON ke_vol                       =   4.6183221576199E+12
(PID.TID 0000.0001) // =======================================================
(PID.TID 0000.0001) // End MONITOR dynamic field statistics
(PID.TID 0000.0001) // =======================================================
(PID.TID 0000.0001) // =======================================================
(PID.TID 0000.0001) // Begin OBCS MONITOR field statistics
(PID.TID 0000.0001) // =======================================================
(PID.TID 0000.0001) %MON obc_N_vVel_max               =   9.9429348788574E-08
(PID.TID 0000.0001) %MON obc_N_vVel_min               =   9.9429348788572E-08
(PID.TID 0000.0001) %MON obc_N_vVel_mean              =   9.9429348788572E-08
(PID.TID 0000.0001) %MON obc_N_vVel_sd                =  -2.9976714398398E-29
(PID.TID 0000.0001) %MON obc_N_vVel_Int               =   6.5623370200458E+00
(PID.TID 0000.0001) // =======================================================
(PID.TID 0000.0001) // End OBCS MONITOR field statistics
(PID.TID 0000.0001) // =======================================================
 cg2d: Sum(rhs),rhsMax =   3.00550847760962E+00  4.53038167101207E+02
(PID.TID 0000.0001)      cg2d_init_res =   6.16026911929023E-06
(PID.TID 0000.0001)      cg2d_iters(min,last) =      -1      79
(PID.TID 0000.0001)      cg2d_last_res =   8.64965621330384E-12
(PID.TID 0000.0001) // =======================================================
(PID.TID 0000.0001) // Begin MONITOR dynamic field statistics
(PID.TID 0000.0001) // =======================================================
(PID.TID 0000.0001) %MON time_tsnumber                =                  1490
(PID.TID 0000.0001) %MON time_secondsf                =   1.4900000000000E+05
(PID.TID 0000.0001) %MON dynstat_eta_max              =   5.7996438264684E+00
(PID.TID 0000.0001) %MON dynstat_eta_min              =  -1.4165079728530E+01
(PID.TID 0000.0001) %MON dynstat_eta_mean             =  -2.5215000961174E+00
(PID.TID 0000.0001) %MON dynstat_eta_sd               =   4.9403381034314E+00
(PID.TID 0000.0001) %MON dynstat_eta_del2             =   1.9059547043491E-01
(PID.TID 0000.0001) %MON dynstat_uvel_max             =   1.3778151524154E-02
(PID.TID 0000.0001) %MON dynstat_uvel_min             =  -6.2403989118966E-02
(PID.TID 0000.0001) %MON dynstat_uvel_mean            =   6.1558860065367E-09
(PID.TID 0000.0001) %MON dynstat_uvel_sd              =   1.8092674015563E-03
(PID.TID 0000.0001) %MON dynstat_uvel_del2            =   2.8288085910937E-06
(PID.TID 0000.0001) %MON dynstat_vvel_max             =   3.5429760646508E-02
(PID.TID 0000.0001) %MON dynstat_vvel_min             =  -1.8910927149813E-02
(PID.TID 0000.0001) %MON dynstat_vvel_mean            =   1.5242227540097E-07
(PID.TID 0000.0001) %MON dynstat_vvel_sd              =   7.8512308495494E-04
(PID.TID 0000.0001) %MON dynstat_vvel_del2            =   2.0308893841437E-06
(PID.TID 0000.0001) %MON dynstat_wvel_max             =   2.3398070135079E-03
(PID.TID 0000.0001) %MON dynstat_wvel_min             =  -2.9490164323443E-03
(PID.TID 0000.0001) %MON dynstat_wvel_mean            =   4.8984347632657E-10
(PID.TID 0000.0001) %MON dynstat_wvel_sd              =   3.9483095727324E-05
(PID.TID 0000.0001) %MON dynstat_wvel_del2            =   1.4845492842642E-07
(PID.TID 0000.0001) %MON dynstat_theta_max            =   1.2000000000000E+00
(PID.TID 0000.0001) %MON dynstat_theta_min            =  -1.0000000000000E+00
(PID.TID 0000.0001) %MON dynstat_theta_mean           =   5.6481600215292E-01
(PID.TID 0000.0001) %MON dynstat_theta_sd             =   8.4879846480165E-01
(PID.TID 0000.0001) %MON dynstat_theta_del2           =   5.5995171580586E-06
(PID.TID 0000.0001) %MON dynstat_salt_max             =   3.4700000000000E+01
(PID.TID 0000.0001) %MON dynstat_salt_min             =   3.4000000000000E+01
(PID.TID 0000.0001) %MON dynstat_salt_mean            =   3.4497840505543E+01
(PID.TID 0000.0001) %MON dynstat_salt_sd              =   2.7005952719118E-01
(PID.TID 0000.0001) %MON dynstat_salt_del2            =   2.2191466058916E-06
(PID.TID 0000.0001) %MON advcfl_uvel_max              =   6.2403989118966E-03
(PID.TID 0000.0001) %MON advcfl_vvel_max              =   3.5429760646508E-03
(PID.TID 0000.0001) %MON advcfl_wvel_max              =   1.4745082161721E-02
(PID.TID 0000.0001) %MON advcfl_W_hf_max              =   1.4745082161721E-02
(PID.TID 0000.0001) %MON pe_b_mean                    =  -6.8119241270606E-01
(PID.TID 0000.0001) %MON ke_max                       =   1.8150023255257E-03
(PID.TID 0000.0001) %MON ke_mean                      =   1.9141566654114E-06
(PID.TID 0000.0001) %MON ke_vol                       =   4.6183222234641E+12
(PID.TID 0000.0001) // =======================================================
(PID.TID 0000.0001) // End MONITOR dynamic field statistics
(PID.TID 0000.0001) // =======================================================
(PID.TID 0000.0001) // =======================================================
(PID.TID 0000.0001) // Begin OBCS MONITOR field statistics
(PID.TID 0000.0001) // =======================================================
(PID.TID 0000.0001) %MON obc_N_vVel_max               =   9.8293369013917E-08
(PID.TID 0000.0001) %MON obc_N_vVel_min               =   9.8293369013913E-08
(PID.TID 0000.0001) %MON obc_N_vVel_mean              =   9.8293369013917E-08
(PID.TID 0000.0001) %MON obc_N_vVel_sd                =  -1.1438483125705E-27
(PID.TID 0000.0001) %MON obc_N_vVel_Int               =   6.4873623549186E+00
(PID.TID 0000.0001) // =======================================================
(PID.TID 0000.0001) // End OBCS MONITOR field statistics
(PID.TID 0000.0001) // =======================================================
 cg2d: Sum(rhs),rhsMax =   3.00549535944592E+00  4.53038145461456E+02
(PID.TID 0000.0001)      cg2d_init_res =   6.17007320869488E-06
(PID.TID 0000.0001)      cg2d_iters(min,last) =      -1      79
(PID.TID 0000.0001)      cg2d_last_res =   8.66674096855567E-12
(PID.TID 0000.0001) // =======================================================
(PID.TID 0000.0001) // Begin MONITOR dynamic field statistics
(PID.TID 0000.0001) // =======================================================
(PID.TID 0000.0001) %MON time_tsnumber                =                  1491
(PID.TID 0000.0001) %MON time_secondsf                =   1.4910000000000E+05
(PID.TID 0000.0001) %MON dynstat_eta_max              =   5.7996471394135E+00
(PID.TID 0000.0001) %MON dynstat_eta_min              =  -1.4165054066512E+01
(PID.TID 0000.0001) %MON dynstat_eta_mean             =  -2.5214889700674E+00
(PID.TID 0000.0001) %MON dynstat_eta_sd               =   4.9403349002095E+00
(PID.TID 0000.0001) %MON dynstat_eta_del2             =   1.9059550417466E-01
(PID.TID 0000.0001) %MON dynstat_uvel_max             =   1.3807376896468E-02
(PID.TID 0000.0001) %MON dynstat_uvel_min             =  -6.2532716109754E-02
(PID.TID 0000.0001) %MON dynstat_uvel_mean            =   6.1907707359117E-09
(PID.TID 0000.0001) %MON dynstat_uvel_sd              =   1.8131276149147E-03
(PID.TID 0000.0001) %MON dynstat_uvel_del2            =   2.8352186960315E-06
(PID.TID 0000.0001) %MON dynstat_vvel_max             =   3.5472804498320E-02
(PID.TID 0000.0001) %MON dynstat_vvel_min             =  -1.8956934547159E-02
(PID.TID 0000.0001) %MON dynstat_vvel_mean            =   1.5055806480782E-07
(PID.TID 0000.0001) %MON dynstat_vvel_sd              =   7.8659993772582E-04
(PID.TID 0000.0001) %MON dynstat_vvel_del2            =   2.0343081560424E-06
(PID.TID 0000.0001) %MON dynstat_wvel_max             =   2.3434152089477E-03
(PID.TID 0000.0001) %MON dynstat_wvel_min             =  -2.9519221252253E-03
(PID.TID 0000.0001) %MON dynstat_wvel_mean            =   4.8788176489873E-10
(PID.TID 0000.0001) %MON dynstat_wvel_sd              =   3.9547128835351E-05
(PID.TID 0000.0001) %MON dynstat_wvel_del2            =   1.4864177982043E-07
(PID.TID 0000.0001) %MON dynstat_theta_max            =   1.2000000000000E+00
(PID.TID 0000.0001) %MON dynstat_theta_min            =  -1.0000000000000E+00
(PID.TID 0000.0001) %MON dynstat_theta_mean           =   5.6481475742828E-01
(PID.TID 0000.0001) %MON dynstat_theta_sd             =   8.4879791449233E-01
(PID.TID 0000.0001) %MON dynstat_theta_del2           =   5.6088568228199E-06
(PID.TID 0000.0001) %MON dynstat_salt_max             =   3.4700000000000E+01
(PID.TID 0000.0001) %MON dynstat_salt_min             =   3.4000000000000E+01
(PID.TID 0000.0001) %MON dynstat_salt_mean            =   3.4497840007783E+01
(PID.TID 0000.0001) %MON dynstat_salt_sd              =   2.7005932109074E-01
(PID.TID 0000.0001) %MON dynstat_salt_del2            =   2.2228509946446E-06
(PID.TID 0000.0001) %MON advcfl_uvel_max              =   6.2532716109754E-03
(PID.TID 0000.0001) %MON advcfl_vvel_max              =   3.5472804498320E-03
(PID.TID 0000.0001) %MON advcfl_wvel_max              =   1.4759610626127E-02
(PID.TID 0000.0001) %MON advcfl_W_hf_max              =   1.4759610626127E-02
(PID.TID 0000.0001) %MON pe_b_mean                    =  -6.8118905555368E-01
(PID.TID 0000.0001) %MON ke_max                       =   1.8224998985620E-03
(PID.TID 0000.0001) %MON ke_mean                      =   1.9221774120699E-06
(PID.TID 0000.0001) %MON ke_vol                       =   4.6183222894291E+12
(PID.TID 0000.0001) // =======================================================
(PID.TID 0000.0001) // End MONITOR dynamic field statistics
(PID.TID 0000.0001) // =======================================================
(PID.TID 0000.0001) // =======================================================
(PID.TID 0000.0001) // Begin OBCS MONITOR field statistics
(PID.TID 0000.0001) // =======================================================
(PID.TID 0000.0001) %MON obc_N_vVel_max               =   9.6726400798958E-08
(PID.TID 0000.0001) %MON obc_N_vVel_min               =   9.6726400798956E-08
(PID.TID 0000.0001) %MON obc_N_vVel_mean              =   9.6726400798958E-08
(PID.TID 0000.0001) %MON obc_N_vVel_sd                =  -9.7818752247405E-29
(PID.TID 0000.0001) %MON obc_N_vVel_Int               =   6.3839424527312E+00
(PID.TID 0000.0001) // =======================================================
(PID.TID 0000.0001) // End OBCS MONITOR field statistics
(PID.TID 0000.0001) // =======================================================
 cg2d: Sum(rhs),rhsMax =   3.00548221660258E+00  4.53038123717550E+02
(PID.TID 0000.0001)      cg2d_init_res =   6.17987639543463E-06
(PID.TID 0000.0001)      cg2d_iters(min,last) =      -1      79
(PID.TID 0000.0001)      cg2d_last_res =   8.68393103863399E-12
(PID.TID 0000.0001) // =======================================================
(PID.TID 0000.0001) // Begin MONITOR dynamic field statistics
(PID.TID 0000.0001) // =======================================================
(PID.TID 0000.0001) %MON time_tsnumber                =                  1492
(PID.TID 0000.0001) %MON time_secondsf                =   1.4920000000000E+05
(PID.TID 0000.0001) %MON dynstat_eta_max              =   5.7996504587145E+00
(PID.TID 0000.0001) %MON dynstat_eta_min              =  -1.4165028341707E+01
(PID.TID 0000.0001) %MON dynstat_eta_mean             =  -2.5214778227335E+00
(PID.TID 0000.0001) %MON dynstat_eta_sd               =   4.9403316902675E+00
(PID.TID 0000.0001) %MON dynstat_eta_del2             =   1.9059553796317E-01
(PID.TID 0000.0001) %MON dynstat_uvel_max             =   1.3836632159538E-02
(PID.TID 0000.0001) %MON dynstat_uvel_min             =  -6.2661529685069E-02
(PID.TID 0000.0001) %MON dynstat_uvel_mean            =   6.2236042023987E-09
(PID.TID 0000.0001) %MON dynstat_uvel_sd              =   1.8169936821708E-03
(PID.TID 0000.0001) %MON dynstat_uvel_del2            =   2.8416410468186E-06
(PID.TID 0000.0001) %MON dynstat_vvel_max             =   3.5515847893719E-02
(PID.TID 0000.0001) %MON dynstat_vvel_min             =  -1.9002987152932E-02
(PID.TID 0000.0001) %MON dynstat_vvel_mean            =   1.4832186965255E-07
(PID.TID 0000.0001) %MON dynstat_vvel_sd              =   7.8807889918299E-04
(PID.TID 0000.0001) %MON dynstat_vvel_del2            =   2.0377305192891E-06
(PID.TID 0000.0001) %MON dynstat_wvel_max             =   2.3470237499598E-03
(PID.TID 0000.0001) %MON dynstat_wvel_min             =  -2.9548050117693E-03
(PID.TID 0000.0001) %MON dynstat_wvel_mean            =   4.8635107895554E-10
(PID.TID 0000.0001) %MON dynstat_wvel_sd              =   3.9611093872128E-05
(PID.TID 0000.0001) %MON dynstat_wvel_del2            =   1.4882857521853E-07
(PID.TID 0000.0001) %MON dynstat_theta_max            =   1.2000000000000E+00
(PID.TID 0000.0001) %MON dynstat_theta_min            =  -1.0000000000000E+00
(PID.TID 0000.0001) %MON dynstat_theta_mean           =   5.6481351059445E-01
(PID.TID 0000.0001) %MON dynstat_theta_sd             =   8.4879736340470E-01
(PID.TID 0000.0001) %MON dynstat_theta_del2           =   5.6182065262698E-06
(PID.TID 0000.0001) %MON dynstat_salt_max             =   3.4700000000000E+01
(PID.TID 0000.0001) %MON dynstat_salt_min             =   3.4000000000000E+01
(PID.TID 0000.0001) %MON dynstat_salt_mean            =   3.4497839509178E+01
(PID.TID 0000.0001) %MON dynstat_salt_sd              =   2.7005911471403E-01
(PID.TID 0000.0001) %MON dynstat_salt_del2            =   2.2265594232547E-06
(PID.TID 0000.0001) %MON advcfl_uvel_max              =   6.2661529685069E-03
(PID.TID 0000.0001) %MON advcfl_vvel_max              =   3.5515847893719E-03
(PID.TID 0000.0001) %MON advcfl_wvel_max              =   1.4774025058846E-02
(PID.TID 0000.0001) %MON advcfl_W_hf_max              =   1.4774025058846E-02
(PID.TID 0000.0001) %MON pe_b_mean                    =  -6.8118569211114E-01
(PID.TID 0000.0001) %MON ke_max                       =   1.8300210841246E-03
(PID.TID 0000.0001) %MON ke_mean                      =   1.9302270591342E-06
(PID.TID 0000.0001) %MON ke_vol                       =   4.6183223555178E+12
(PID.TID 0000.0001) // =======================================================
(PID.TID 0000.0001) // End MONITOR dynamic field statistics
(PID.TID 0000.0001) // =======================================================
(PID.TID 0000.0001) // =======================================================
(PID.TID 0000.0001) // Begin OBCS MONITOR field statistics
(PID.TID 0000.0001) // =======================================================
(PID.TID 0000.0001) %MON obc_N_vVel_max               =   9.4772734865430E-08
(PID.TID 0000.0001) %MON obc_N_vVel_min               =   9.4772734865428E-08
(PID.TID 0000.0001) %MON obc_N_vVel_mean              =   9.4772734865428E-08
(PID.TID 0000.0001) %MON obc_N_vVel_sd                =   1.5383701491069E-14
(PID.TID 0000.0001) %MON obc_N_vVel_Int               =   6.2550005011183E+00
(PID.TID 0000.0001) // =======================================================
(PID.TID 0000.0001) // End OBCS MONITOR field statistics
(PID.TID 0000.0001) // =======================================================
 cg2d: Sum(rhs),rhsMax =   3.00546904862461E+00  4.53038101867299E+02
(PID.TID 0000.0001)      cg2d_init_res =   6.18968049741950E-06
(PID.TID 0000.0001)      cg2d_iters(min,last) =      -1      79
(PID.TID 0000.0001)      cg2d_last_res =   8.70120194167356E-12
(PID.TID 0000.0001) // =======================================================
(PID.TID 0000.0001) // Begin MONITOR dynamic field statistics
(PID.TID 0000.0001) // =======================================================
(PID.TID 0000.0001) %MON time_tsnumber                =                  1493
(PID.TID 0000.0001) %MON time_secondsf                =   1.4930000000000E+05
(PID.TID 0000.0001) %MON dynstat_eta_max              =   5.7996537848519E+00
(PID.TID 0000.0001) %MON dynstat_eta_min              =  -1.4165002553413E+01
(PID.TID 0000.0001) %MON dynstat_eta_mean             =  -2.5214666537219E+00
(PID.TID 0000.0001) %MON dynstat_eta_sd               =   4.9403284735291E+00
(PID.TID 0000.0001) %MON dynstat_eta_del2             =   1.9059557180046E-01
(PID.TID 0000.0001) %MON dynstat_uvel_max             =   1.3865917231176E-02
(PID.TID 0000.0001) %MON dynstat_uvel_min             =  -6.2790429790642E-02
(PID.TID 0000.0001) %MON dynstat_uvel_mean            =   6.2540074790655E-09
(PID.TID 0000.0001) %MON dynstat_uvel_sd              =   1.8208656013776E-03
(PID.TID 0000.0001) %MON dynstat_uvel_del2            =   2.8480756584455E-06
(PID.TID 0000.0001) %MON dynstat_vvel_max             =   3.5558890744662E-02
(PID.TID 0000.0001) %MON dynstat_vvel_min             =  -1.9049084260509E-02
(PID.TID 0000.0001) %MON dynstat_vvel_mean            =   1.4577389320841E-07
(PID.TID 0000.0001) %MON dynstat_vvel_sd              =   7.8955998804216E-04
(PID.TID 0000.0001) %MON dynstat_vvel_del2            =   2.0411564973123E-06
(PID.TID 0000.0001) %MON dynstat_wvel_max             =   2.3506326167194E-03
(PID.TID 0000.0001) %MON dynstat_wvel_min             =  -2.9576649739751E-03
(PID.TID 0000.0001) %MON dynstat_wvel_mean            =   4.8529760913634E-10
(PID.TID 0000.0001) %MON dynstat_wvel_sd              =   3.9675018833679E-05
(PID.TID 0000.0001) %MON dynstat_wvel_del2            =   1.4901523231621E-07
(PID.TID 0000.0001) %MON dynstat_theta_max            =   1.2000000000000E+00
(PID.TID 0000.0001) %MON dynstat_theta_min            =  -1.0000000000000E+00
(PID.TID 0000.0001) %MON dynstat_theta_mean           =   5.6481226164872E-01
(PID.TID 0000.0001) %MON dynstat_theta_sd             =   8.4879681153851E-01
(PID.TID 0000.0001) %MON dynstat_theta_del2           =   5.6275661188637E-06
(PID.TID 0000.0001) %MON dynstat_salt_max             =   3.4700000000000E+01
(PID.TID 0000.0001) %MON dynstat_salt_min             =   3.4000000000000E+01
(PID.TID 0000.0001) %MON dynstat_salt_mean            =   3.4497839009727E+01
(PID.TID 0000.0001) %MON dynstat_salt_sd              =   2.7005890806108E-01
(PID.TID 0000.0001) %MON dynstat_salt_del2            =   2.2302718657860E-06
(PID.TID 0000.0001) %MON advcfl_uvel_max              =   6.2790429790642E-03
(PID.TID 0000.0001) %MON advcfl_vvel_max              =   3.5558890744662E-03
(PID.TID 0000.0001) %MON advcfl_wvel_max              =   1.4788324869876E-02
(PID.TID 0000.0001) %MON advcfl_W_hf_max              =   1.4788324869876E-02
(PID.TID 0000.0001) %MON pe_b_mean                    =  -6.8118232230915E-01
(PID.TID 0000.0001) %MON ke_max                       =   1.8375658960991E-03
(PID.TID 0000.0001) %MON ke_mean                      =   1.9383056938875E-06
(PID.TID 0000.0001) %MON ke_vol                       =   4.6183224217330E+12
(PID.TID 0000.0001) // =======================================================
(PID.TID 0000.0001) // End MONITOR dynamic field statistics
(PID.TID 0000.0001) // =======================================================
(PID.TID 0000.0001) // =======================================================
(PID.TID 0000.0001) // Begin OBCS MONITOR field statistics
(PID.TID 0000.0001) // =======================================================
(PID.TID 0000.0001) %MON obc_N_vVel_max               =   9.2484682366022E-08
(PID.TID 0000.0001) %MON obc_N_vVel_min               =   9.2484682366020E-08
(PID.TID 0000.0001) %MON obc_N_vVel_mean              =   9.2484682366022E-08
(PID.TID 0000.0001) %MON obc_N_vVel_sd                =  -2.7610131682735E-28
(PID.TID 0000.0001) %MON obc_N_vVel_Int               =   6.1039890361574E+00
(PID.TID 0000.0001) // =======================================================
(PID.TID 0000.0001) // End OBCS MONITOR field statistics
(PID.TID 0000.0001) // =======================================================
 cg2d: Sum(rhs),rhsMax =   3.00545585512165E+00  4.53038079910346E+02
(PID.TID 0000.0001)      cg2d_init_res =   6.19948318666922E-06
(PID.TID 0000.0001)      cg2d_iters(min,last) =      -1      79
(PID.TID 0000.0001)      cg2d_last_res =   8.71854253237943E-12
(PID.TID 0000.0001) // =======================================================
(PID.TID 0000.0001) // Begin MONITOR dynamic field statistics
(PID.TID 0000.0001) // =======================================================
(PID.TID 0000.0001) %MON time_tsnumber                =                  1494
(PID.TID 0000.0001) %MON time_secondsf                =   1.4940000000000E+05
(PID.TID 0000.0001) %MON dynstat_eta_max              =   5.7996571181755E+00
(PID.TID 0000.0001) %MON dynstat_eta_min              =  -1.4164976701038E+01
(PID.TID 0000.0001) %MON dynstat_eta_mean             =  -2.5214554627030E+00
(PID.TID 0000.0001) %MON dynstat_eta_sd               =   4.9403252499459E+00
(PID.TID 0000.0001) %MON dynstat_eta_del2             =   1.9059560568664E-01
(PID.TID 0000.0001) %MON dynstat_uvel_max             =   1.3895232029360E-02
(PID.TID 0000.0001) %MON dynstat_uvel_min             =  -6.2919416370494E-02
(PID.TID 0000.0001) %MON dynstat_uvel_mean            =   6.2816593669243E-09
(PID.TID 0000.0001) %MON dynstat_uvel_sd              =   1.8247433705149E-03
(PID.TID 0000.0001) %MON dynstat_uvel_del2            =   2.8545225457373E-06
(PID.TID 0000.0001) %MON dynstat_vvel_max             =   3.5601932963244E-02
(PID.TID 0000.0001) %MON dynstat_vvel_min             =  -1.9095225156576E-02
(PID.TID 0000.0001) %MON dynstat_vvel_mean            =   1.4298062023603E-07
(PID.TID 0000.0001) %MON dynstat_vvel_sd              =   7.9104322355358E-04
(PID.TID 0000.0001) %MON dynstat_vvel_del2            =   2.0445861109662E-06
(PID.TID 0000.0001) %MON dynstat_wvel_max             =   2.3542417893758E-03
(PID.TID 0000.0001) %MON dynstat_wvel_min             =  -2.9605836930067E-03
(PID.TID 0000.0001) %MON dynstat_wvel_mean            =   4.8475682808749E-10
(PID.TID 0000.0001) %MON dynstat_wvel_sd              =   3.9738932149575E-05
(PID.TID 0000.0001) %MON dynstat_wvel_del2            =   1.4920165503437E-07
(PID.TID 0000.0001) %MON dynstat_theta_max            =   1.2000000000000E+00
(PID.TID 0000.0001) %MON dynstat_theta_min            =  -1.0000000000000E+00
(PID.TID 0000.0001) %MON dynstat_theta_mean           =   5.6481101058818E-01
(PID.TID 0000.0001) %MON dynstat_theta_sd             =   8.4879625889453E-01
(PID.TID 0000.0001) %MON dynstat_theta_del2           =   5.6369355109070E-06
(PID.TID 0000.0001) %MON dynstat_salt_max             =   3.4700000000000E+01
(PID.TID 0000.0001) %MON dynstat_salt_min             =   3.4000000000000E+01
(PID.TID 0000.0001) %MON dynstat_salt_mean            =   3.4497838509429E+01
(PID.TID 0000.0001) %MON dynstat_salt_sd              =   2.7005870113229E-01
(PID.TID 0000.0001) %MON dynstat_salt_del2            =   2.2339882908736E-06
(PID.TID 0000.0001) %MON advcfl_uvel_max              =   6.2919416370494E-03
(PID.TID 0000.0001) %MON advcfl_vvel_max              =   3.5601932963244E-03
(PID.TID 0000.0001) %MON advcfl_wvel_max              =   1.4802918465033E-02
(PID.TID 0000.0001) %MON advcfl_W_hf_max              =   1.4802918465033E-02
(PID.TID 0000.0001) %MON pe_b_mean                    =  -6.8117894609275E-01
(PID.TID 0000.0001) %MON ke_max                       =   1.8451343459960E-03
(PID.TID 0000.0001) %MON ke_mean                      =   1.9464134041014E-06
(PID.TID 0000.0001) %MON ke_vol                       =   4.6183224880769E+12
(PID.TID 0000.0001) // =======================================================
(PID.TID 0000.0001) // End MONITOR dynamic field statistics
(PID.TID 0000.0001) // =======================================================
(PID.TID 0000.0001) // =======================================================
(PID.TID 0000.0001) // Begin OBCS MONITOR field statistics
(PID.TID 0000.0001) // =======================================================
(PID.TID 0000.0001) %MON obc_N_vVel_max               =   8.9921381659466E-08
(PID.TID 0000.0001) %MON obc_N_vVel_min               =   8.9921381659464E-08
(PID.TID 0000.0001) %MON obc_N_vVel_mean              =   8.9921381659464E-08
(PID.TID 0000.0001) %MON obc_N_vVel_sd                =   2.5309189142275E-14
(PID.TID 0000.0001) %MON obc_N_vVel_Int               =   5.9348111895246E+00
(PID.TID 0000.0001) // =======================================================
(PID.TID 0000.0001) // End OBCS MONITOR field statistics
(PID.TID 0000.0001) // =======================================================
 cg2d: Sum(rhs),rhsMax =   3.00544263577893E+00  4.53038057848125E+02
(PID.TID 0000.0001)      cg2d_init_res =   6.20927872042520E-06
(PID.TID 0000.0001)      cg2d_iters(min,last) =      -1      79
(PID.TID 0000.0001)      cg2d_last_res =   8.73593974680808E-12
(PID.TID 0000.0001) // =======================================================
(PID.TID 0000.0001) // Begin MONITOR dynamic field statistics
(PID.TID 0000.0001) // =======================================================
(PID.TID 0000.0001) %MON time_tsnumber                =                  1495
(PID.TID 0000.0001) %MON time_secondsf                =   1.4950000000000E+05
(PID.TID 0000.0001) %MON dynstat_eta_max              =   5.7996604589317E+00
(PID.TID 0000.0001) %MON dynstat_eta_min              =  -1.4164950784153E+01
(PID.TID 0000.0001) %MON dynstat_eta_mean             =  -2.5214442494208E+00
(PID.TID 0000.0001) %MON dynstat_eta_sd               =   4.9403220194983E+00
(PID.TID 0000.0001) %MON dynstat_eta_del2             =   1.9059563962191E-01
(PID.TID 0000.0001) %MON dynstat_uvel_max             =   1.3924576473916E-02
(PID.TID 0000.0001) %MON dynstat_uvel_min             =  -6.3048489368100E-02
(PID.TID 0000.0001) %MON dynstat_uvel_mean            =   6.3063141030300E-09
(PID.TID 0000.0001) %MON dynstat_uvel_sd              =   1.8286269875132E-03
(PID.TID 0000.0001) %MON dynstat_uvel_del2            =   2.8609817237277E-06
(PID.TID 0000.0001) %MON dynstat_vvel_max             =   3.5644974461447E-02
(PID.TID 0000.0001) %MON dynstat_vvel_min             =  -1.9141409115832E-02
(PID.TID 0000.0001) %MON dynstat_vvel_mean            =   1.4001332816892E-07
(PID.TID 0000.0001) %MON dynstat_vvel_sd              =   7.9252862503877E-04
(PID.TID 0000.0001) %MON dynstat_vvel_del2            =   2.0480193803860E-06
(PID.TID 0000.0001) %MON dynstat_wvel_max             =   2.3578512479986E-03
(PID.TID 0000.0001) %MON dynstat_wvel_min             =  -2.9638830548403E-03
(PID.TID 0000.0001) %MON dynstat_wvel_mean            =   4.8475259460726E-10
(PID.TID 0000.0001) %MON dynstat_wvel_sd              =   3.9802863065816E-05
(PID.TID 0000.0001) %MON dynstat_wvel_del2            =   1.4938774834356E-07
(PID.TID 0000.0001) %MON dynstat_theta_max            =   1.2000000000000E+00
(PID.TID 0000.0001) %MON dynstat_theta_min            =  -1.0000000000000E+00
(PID.TID 0000.0001) %MON dynstat_theta_mean           =   5.6480975741010E-01
(PID.TID 0000.0001) %MON dynstat_theta_sd             =   8.4879570547223E-01
(PID.TID 0000.0001) %MON dynstat_theta_del2           =   5.6463145858240E-06
(PID.TID 0000.0001) %MON dynstat_salt_max             =   3.4700000000000E+01
(PID.TID 0000.0001) %MON dynstat_salt_min             =   3.4000000000000E+01
(PID.TID 0000.0001) %MON dynstat_salt_mean            =   3.4497838008282E+01
(PID.TID 0000.0001) %MON dynstat_salt_sd              =   2.7005849392755E-01
(PID.TID 0000.0001) %MON dynstat_salt_del2            =   2.2377086499448E-06
(PID.TID 0000.0001) %MON advcfl_uvel_max              =   6.3048489368100E-03
(PID.TID 0000.0001) %MON advcfl_vvel_max              =   3.5644974461447E-03
(PID.TID 0000.0001) %MON advcfl_wvel_max              =   1.4819415274201E-02
(PID.TID 0000.0001) %MON advcfl_W_hf_max              =   1.4819415274201E-02
(PID.TID 0000.0001) %MON pe_b_mean                    =  -6.8117556342280E-01
(PID.TID 0000.0001) %MON ke_max                       =   1.8527264444360E-03
(PID.TID 0000.0001) %MON ke_mean                      =   1.9545502777132E-06
(PID.TID 0000.0001) %MON ke_vol                       =   4.6183225545515E+12
(PID.TID 0000.0001) // =======================================================
(PID.TID 0000.0001) // End MONITOR dynamic field statistics
(PID.TID 0000.0001) // =======================================================
(PID.TID 0000.0001) // =======================================================
(PID.TID 0000.0001) // Begin OBCS MONITOR field statistics
(PID.TID 0000.0001) // =======================================================
(PID.TID 0000.0001) %MON obc_N_vVel_max               =   8.7147470946084E-08
(PID.TID 0000.0001) %MON obc_N_vVel_min               =   8.7147470946081E-08
(PID.TID 0000.0001) %MON obc_N_vVel_mean              =   8.7147470946084E-08
(PID.TID 0000.0001) %MON obc_N_vVel_sd                =  -2.0194839173658E-28
(PID.TID 0000.0001) %MON obc_N_vVel_Int               =   5.7517330824415E+00
(PID.TID 0000.0001) // =======================================================
(PID.TID 0000.0001) // End OBCS MONITOR field statistics
(PID.TID 0000.0001) // =======================================================
 cg2d: Sum(rhs),rhsMax =   3.00542939036167E+00  4.53038035683764E+02
(PID.TID 0000.0001)      cg2d_init_res =   6.21906052177373E-06
(PID.TID 0000.0001)      cg2d_iters(min,last) =      -1      79
(PID.TID 0000.0001)      cg2d_last_res =   8.75338056782859E-12
(PID.TID 0000.0001) // =======================================================
(PID.TID 0000.0001) // Begin MONITOR dynamic field statistics
(PID.TID 0000.0001) // =======================================================
(PID.TID 0000.0001) %MON time_tsnumber                =                  1496
(PID.TID 0000.0001) %MON time_secondsf                =   1.4960000000000E+05
(PID.TID 0000.0001) %MON dynstat_eta_max              =   5.7996638072267E+00
(PID.TID 0000.0001) %MON dynstat_eta_min              =  -1.4164924802487E+01
(PID.TID 0000.0001) %MON dynstat_eta_mean             =  -2.5214330136957E+00
(PID.TID 0000.0001) %MON dynstat_eta_sd               =   4.9403187821944E+00
(PID.TID 0000.0001) %MON dynstat_eta_del2             =   1.9059567360645E-01
(PID.TID 0000.0001) %MON dynstat_uvel_max             =   1.3953950484752E-02
(PID.TID 0000.0001) %MON dynstat_uvel_min             =  -6.3177648729933E-02
(PID.TID 0000.0001) %MON dynstat_uvel_mean            =   6.3277983371429E-09
(PID.TID 0000.0001) %MON dynstat_uvel_sd              =   1.8325164502444E-03
(PID.TID 0000.0001) %MON dynstat_uvel_del2            =   2.8674532074102E-06
(PID.TID 0000.0001) %MON dynstat_vvel_max             =   3.5688015150978E-02
(PID.TID 0000.0001) %MON dynstat_vvel_min             =  -1.9187635400931E-02
(PID.TID 0000.0001) %MON dynstat_vvel_mean            =   1.3694649579155E-07
(PID.TID 0000.0001) %MON dynstat_vvel_sd              =   7.9401621149537E-04
(PID.TID 0000.0001) %MON dynstat_vvel_del2            =   2.0514563270709E-06
(PID.TID 0000.0001) %MON dynstat_wvel_max             =   2.3614609725800E-03
(PID.TID 0000.0001) %MON dynstat_wvel_min             =  -2.9671614161143E-03
(PID.TID 0000.0001) %MON dynstat_wvel_mean            =   4.8529691747194E-10
(PID.TID 0000.0001) %MON dynstat_wvel_sd              =   3.9866841946685E-05
(PID.TID 0000.0001) %MON dynstat_wvel_del2            =   1.4957343306879E-07
(PID.TID 0000.0001) %MON dynstat_theta_max            =   1.2000000000000E+00
(PID.TID 0000.0001) %MON dynstat_theta_min            =  -1.0000000000000E+00
(PID.TID 0000.0001) %MON dynstat_theta_mean           =   5.6480850211176E-01
(PID.TID 0000.0001) %MON dynstat_theta_sd             =   8.4879515127185E-01
(PID.TID 0000.0001) %MON dynstat_theta_del2           =   5.6557032295571E-06
(PID.TID 0000.0001) %MON dynstat_salt_max             =   3.4700000000000E+01
(PID.TID 0000.0001) %MON dynstat_salt_min             =   3.4000000000000E+01
(PID.TID 0000.0001) %MON dynstat_salt_mean            =   3.4497837506286E+01
(PID.TID 0000.0001) %MON dynstat_salt_sd              =   2.7005828644705E-01
(PID.TID 0000.0001) %MON dynstat_salt_del2            =   2.2414329091666E-06
(PID.TID 0000.0001) %MON advcfl_uvel_max              =   6.3177648729933E-03
(PID.TID 0000.0001) %MON advcfl_vvel_max              =   3.5688015150978E-03
(PID.TID 0000.0001) %MON advcfl_wvel_max              =   1.4835807080572E-02
(PID.TID 0000.0001) %MON advcfl_W_hf_max              =   1.4835807080572E-02
(PID.TID 0000.0001) %MON pe_b_mean                    =  -6.8117217427626E-01
(PID.TID 0000.0001) %MON ke_max                       =   1.8603422011652E-03
(PID.TID 0000.0001) %MON ke_mean                      =   1.9627164024962E-06
(PID.TID 0000.0001) %MON ke_vol                       =   4.6183226211584E+12
(PID.TID 0000.0001) // =======================================================
(PID.TID 0000.0001) // End MONITOR dynamic field statistics
(PID.TID 0000.0001) // =======================================================
(PID.TID 0000.0001) // =======================================================
(PID.TID 0000.0001) // Begin OBCS MONITOR field statistics
(PID.TID 0000.0001) // =======================================================
(PID.TID 0000.0001) %MON obc_N_vVel_max               =   8.4231613084306E-08
(PID.TID 0000.0001) %MON obc_N_vVel_min               =   8.4231613084304E-08
(PID.TID 0000.0001) %MON obc_N_vVel_mean              =   8.4231613084306E-08
(PID.TID 0000.0001) %MON obc_N_vVel_sd                =  -1.0255191767873E-29
(PID.TID 0000.0001) %MON obc_N_vVel_Int               =   5.5592864635642E+00
(PID.TID 0000.0001) // =======================================================
(PID.TID 0000.0001) // End OBCS MONITOR field statistics
(PID.TID 0000.0001) // =======================================================
 cg2d: Sum(rhs),rhsMax =   3.00541611871956E+00  4.53038013421971E+02
(PID.TID 0000.0001)      cg2d_init_res =   6.22882464693164E-06
(PID.TID 0000.0001)      cg2d_iters(min,last) =      -1      79
(PID.TID 0000.0001)      cg2d_last_res =   8.77086271611253E-12
(PID.TID 0000.0001) // =======================================================
(PID.TID 0000.0001) // Begin MONITOR dynamic field statistics
(PID.TID 0000.0001) // =======================================================
(PID.TID 0000.0001) %MON time_tsnumber                =                  1497
(PID.TID 0000.0001) %MON time_secondsf                =   1.4970000000000E+05
(PID.TID 0000.0001) %MON dynstat_eta_max              =   5.7996671630487E+00
(PID.TID 0000.0001) %MON dynstat_eta_min              =  -1.4164898755923E+01
(PID.TID 0000.0001) %MON dynstat_eta_mean             =  -2.5214217554279E+00
(PID.TID 0000.0001) %MON dynstat_eta_sd               =   4.9403155380698E+00
(PID.TID 0000.0001) %MON dynstat_eta_del2             =   1.9059570764056E-01
(PID.TID 0000.0001) %MON dynstat_uvel_max             =   1.3983353981174E-02
(PID.TID 0000.0001) %MON dynstat_uvel_min             =  -6.3306894406029E-02
(PID.TID 0000.0001) %MON dynstat_uvel_mean            =   6.3460121351040E-09
(PID.TID 0000.0001) %MON dynstat_uvel_sd              =   1.8364117565176E-03
(PID.TID 0000.0001) %MON dynstat_uvel_del2            =   2.8739370118140E-06
(PID.TID 0000.0001) %MON dynstat_vvel_max             =   3.5731054942972E-02
(PID.TID 0000.0001) %MON dynstat_vvel_min             =  -1.9233903263343E-02
(PID.TID 0000.0001) %MON dynstat_vvel_mean            =   1.3385615896474E-07
(PID.TID 0000.0001) %MON dynstat_vvel_sd              =   7.9550600117261E-04
(PID.TID 0000.0001) %MON dynstat_vvel_del2            =   2.0548969755535E-06
(PID.TID 0000.0001) %MON dynstat_wvel_max             =   2.3650709430456E-03
(PID.TID 0000.0001) %MON dynstat_wvel_min             =  -2.9704186553758E-03
(PID.TID 0000.0001) %MON dynstat_wvel_mean            =   4.8638986555376E-10
(PID.TID 0000.0001) %MON dynstat_wvel_sd              =   3.9930900384237E-05
(PID.TID 0000.0001) %MON dynstat_wvel_del2            =   1.4975865931017E-07
(PID.TID 0000.0001) %MON dynstat_theta_max            =   1.2000000000000E+00
(PID.TID 0000.0001) %MON dynstat_theta_min            =  -1.0000000000000E+00
(PID.TID 0000.0001) %MON dynstat_theta_mean           =   5.6480724469049E-01
(PID.TID 0000.0001) %MON dynstat_theta_sd             =   8.4879459629078E-01
(PID.TID 0000.0001) %MON dynstat_theta_del2           =   5.6650868122594E-06
(PID.TID 0000.0001) %MON dynstat_salt_max             =   3.4700000000000E+01
(PID.TID 0000.0001) %MON dynstat_salt_min             =   3.4000000000000E+01
(PID.TID 0000.0001) %MON dynstat_salt_mean            =   3.4497837003440E+01
(PID.TID 0000.0001) %MON dynstat_salt_sd              =   2.7005807869121E-01
(PID.TID 0000.0001) %MON dynstat_salt_del2            =   2.2451606036689E-06
(PID.TID 0000.0001) %MON advcfl_uvel_max              =   6.3306894406029E-03
(PID.TID 0000.0001) %MON advcfl_vvel_max              =   3.5731054942972E-03
(PID.TID 0000.0001) %MON advcfl_wvel_max              =   1.4852093276879E-02
(PID.TID 0000.0001) %MON advcfl_W_hf_max              =   1.4852093276879E-02
(PID.TID 0000.0001) %MON pe_b_mean                    =  -6.8116877864648E-01
(PID.TID 0000.0001) %MON ke_max                       =   1.8679816250680E-03
(PID.TID 0000.0001) %MON ke_mean                      =   1.9709118657090E-06
(PID.TID 0000.0001) %MON ke_vol                       =   4.6183226878986E+12
(PID.TID 0000.0001) // =======================================================
(PID.TID 0000.0001) // End MONITOR dynamic field statistics
(PID.TID 0000.0001) // =======================================================
(PID.TID 0000.0001) // =======================================================
(PID.TID 0000.0001) // Begin OBCS MONITOR field statistics
(PID.TID 0000.0001) // =======================================================
(PID.TID 0000.0001) %MON obc_N_vVel_max               =   8.1244972189392E-08
(PID.TID 0000.0001) %MON obc_N_vVel_min               =   8.1244972189391E-08
(PID.TID 0000.0001) %MON obc_N_vVel_mean              =   8.1244972189392E-08
(PID.TID 0000.0001) %MON obc_N_vVel_sd                =  -3.1238891846752E-28
(PID.TID 0000.0001) %MON obc_N_vVel_Int               =   5.3621681644998E+00
(PID.TID 0000.0001) // =======================================================
(PID.TID 0000.0001) // End OBCS MONITOR field statistics
(PID.TID 0000.0001) // =======================================================
 cg2d: Sum(rhs),rhsMax =   3.00540282078821E+00  4.53037991068865E+02
(PID.TID 0000.0001)      cg2d_init_res =   6.23880229999825E-06
(PID.TID 0000.0001)      cg2d_iters(min,last) =      -1      79
(PID.TID 0000.0001)      cg2d_last_res =   8.78880794119995E-12
(PID.TID 0000.0001) // =======================================================
(PID.TID 0000.0001) // Begin MONITOR dynamic field statistics
(PID.TID 0000.0001) // =======================================================
(PID.TID 0000.0001) %MON time_tsnumber                =                  1498
(PID.TID 0000.0001) %MON time_secondsf                =   1.4980000000000E+05
(PID.TID 0000.0001) %MON dynstat_eta_max              =   5.7996705262522E+00
(PID.TID 0000.0001) %MON dynstat_eta_min              =  -1.4164872644502E+01
(PID.TID 0000.0001) %MON dynstat_eta_mean             =  -2.5214104745974E+00
(PID.TID 0000.0001) %MON dynstat_eta_sd               =   4.9403122871905E+00
(PID.TID 0000.0001) %MON dynstat_eta_del2             =   1.9059574172472E-01
(PID.TID 0000.0001) %MON dynstat_uvel_max             =   1.4012786879922E-02
(PID.TID 0000.0001) %MON dynstat_uvel_min             =  -6.3436226354003E-02
(PID.TID 0000.0001) %MON dynstat_uvel_mean            =   6.3609850402053E-09
(PID.TID 0000.0001) %MON dynstat_uvel_sd              =   1.8403129036952E-03
(PID.TID 0000.0001) %MON dynstat_uvel_del2            =   2.8804331572089E-06
(PID.TID 0000.0001) %MON dynstat_vvel_max             =   3.5774093748149E-02
(PID.TID 0000.0001) %MON dynstat_vvel_min             =  -1.9280211943482E-02
(PID.TID 0000.0001) %MON dynstat_vvel_mean            =   1.3081821596730E-07
(PID.TID 0000.0001) %MON dynstat_vvel_sd              =   7.9699801075075E-04
(PID.TID 0000.0001) %MON dynstat_vvel_del2            =   2.0583413463438E-06
(PID.TID 0000.0001) %MON dynstat_wvel_max             =   2.3686811392472E-03
(PID.TID 0000.0001) %MON dynstat_wvel_min             =  -2.9736546495524E-03
(PID.TID 0000.0001) %MON dynstat_wvel_mean            =   4.8801852194471E-10
(PID.TID 0000.0001) %MON dynstat_wvel_sd              =   3.9995070845353E-05
(PID.TID 0000.0001) %MON dynstat_wvel_del2            =   1.4994341405975E-07
(PID.TID 0000.0001) %MON dynstat_theta_max            =   1.2000000000000E+00
(PID.TID 0000.0001) %MON dynstat_theta_min            =  -1.0000000000000E+00
(PID.TID 0000.0001) %MON dynstat_theta_mean           =   5.6480598514358E-01
(PID.TID 0000.0001) %MON dynstat_theta_sd             =   8.4879404053105E-01
(PID.TID 0000.0001) %MON dynstat_theta_del2           =   5.6744756595385E-06
(PID.TID 0000.0001) %MON dynstat_salt_max             =   3.4700000000000E+01
(PID.TID 0000.0001) %MON dynstat_salt_min             =   3.4000000000000E+01
(PID.TID 0000.0001) %MON dynstat_salt_mean            =   3.4497836499742E+01
(PID.TID 0000.0001) %MON dynstat_salt_sd              =   2.7005787066004E-01
(PID.TID 0000.0001) %MON dynstat_salt_del2            =   2.2488921260957E-06
(PID.TID 0000.0001) %MON advcfl_uvel_max              =   6.3436226354003E-03
(PID.TID 0000.0001) %MON advcfl_vvel_max              =   3.5774093748149E-03
(PID.TID 0000.0001) %MON advcfl_wvel_max              =   1.4868273247762E-02
(PID.TID 0000.0001) %MON advcfl_W_hf_max              =   1.4868273247762E-02
(PID.TID 0000.0001) %MON pe_b_mean                    =  -6.8116537654298E-01
(PID.TID 0000.0001) %MON ke_max                       =   1.8756447245451E-03
(PID.TID 0000.0001) %MON ke_mean                      =   1.9791367527429E-06
(PID.TID 0000.0001) %MON ke_vol                       =   4.6183227547728E+12
(PID.TID 0000.0001) // =======================================================
(PID.TID 0000.0001) // End MONITOR dynamic field statistics
(PID.TID 0000.0001) // =======================================================
(PID.TID 0000.0001) // =======================================================
(PID.TID 0000.0001) // Begin OBCS MONITOR field statistics
(PID.TID 0000.0001) // =======================================================
(PID.TID 0000.0001) %MON obc_N_vVel_max               =   7.8259659077884E-08
(PID.TID 0000.0001) %MON obc_N_vVel_min               =   7.8259659077884E-08
(PID.TID 0000.0001) %MON obc_N_vVel_mean              =   7.8259659077884E-08
(PID.TID 0000.0001) %MON obc_N_vVel_sd                =   6.8798004559188E-15
(PID.TID 0000.0001) %MON obc_N_vVel_Int               =   5.1651374991403E+00
(PID.TID 0000.0001) // =======================================================
(PID.TID 0000.0001) // End OBCS MONITOR field statistics
(PID.TID 0000.0001) // =======================================================
 cg2d: Sum(rhs),rhsMax =   3.00538949658891E+00  4.53037968631865E+02
(PID.TID 0000.0001)      cg2d_init_res =   6.24859723958167E-06
(PID.TID 0000.0001)      cg2d_iters(min,last) =      -1      79
(PID.TID 0000.0001)      cg2d_last_res =   8.80648486672575E-12
(PID.TID 0000.0001) // =======================================================
(PID.TID 0000.0001) // Begin MONITOR dynamic field statistics
(PID.TID 0000.0001) // =======================================================
(PID.TID 0000.0001) %MON time_tsnumber                =                  1499
(PID.TID 0000.0001) %MON time_secondsf                =   1.4990000000000E+05
(PID.TID 0000.0001) %MON dynstat_eta_max              =   5.7996738965620E+00
(PID.TID 0000.0001) %MON dynstat_eta_min              =  -1.4164846468421E+01
(PID.TID 0000.0001) %MON dynstat_eta_mean             =  -2.5213991712633E+00
(PID.TID 0000.0001) %MON dynstat_eta_sd               =   4.9403090296434E+00
(PID.TID 0000.0001) %MON dynstat_eta_del2             =   1.9059577585955E-01
(PID.TID 0000.0001) %MON dynstat_uvel_max             =   1.4042249090946E-02
(PID.TID 0000.0001) %MON dynstat_uvel_min             =  -6.3565644527596E-02
(PID.TID 0000.0001) %MON dynstat_uvel_mean            =   6.3727484513756E-09
(PID.TID 0000.0001) %MON dynstat_uvel_sd              =   1.8442198894534E-03
(PID.TID 0000.0001) %MON dynstat_uvel_del2            =   2.8869416643783E-06
(PID.TID 0000.0001) %MON dynstat_vvel_max             =   3.5817131475454E-02
(PID.TID 0000.0001) %MON dynstat_vvel_min             =  -1.9326560522714E-02
(PID.TID 0000.0001) %MON dynstat_vvel_mean            =   1.2790684742607E-07
(PID.TID 0000.0001) %MON dynstat_vvel_sd              =   7.9849225535433E-04
(PID.TID 0000.0001) %MON dynstat_vvel_del2            =   2.0617894714286E-06
(PID.TID 0000.0001) %MON dynstat_wvel_max             =   2.3722915410187E-03
(PID.TID 0000.0001) %MON dynstat_wvel_min             =  -2.9768693040194E-03
(PID.TID 0000.0001) %MON dynstat_wvel_mean            =   4.9016034604469E-10
(PID.TID 0000.0001) %MON dynstat_wvel_sd              =   4.0059386565411E-05
(PID.TID 0000.0001) %MON dynstat_wvel_del2            =   1.5012773600689E-07
(PID.TID 0000.0001) %MON dynstat_theta_max            =   1.2000000000000E+00
(PID.TID 0000.0001) %MON dynstat_theta_min            =  -1.0000000000000E+00
(PID.TID 0000.0001) %MON dynstat_theta_mean           =   5.6480472346829E-01
(PID.TID 0000.0001) %MON dynstat_theta_sd             =   8.4879348399399E-01
(PID.TID 0000.0001) %MON dynstat_theta_del2           =   5.6838737382464E-06
(PID.TID 0000.0001) %MON dynstat_salt_max             =   3.4700000000000E+01
(PID.TID 0000.0001) %MON dynstat_salt_min             =   3.4000000000000E+01
(PID.TID 0000.0001) %MON dynstat_salt_mean            =   3.4497835995192E+01
(PID.TID 0000.0001) %MON dynstat_salt_sd              =   2.7005766235370E-01
(PID.TID 0000.0001) %MON dynstat_salt_del2            =   2.2526274494584E-06
(PID.TID 0000.0001) %MON advcfl_uvel_max              =   6.3565644527596E-03
(PID.TID 0000.0001) %MON advcfl_vvel_max              =   3.5817131475454E-03
(PID.TID 0000.0001) %MON advcfl_wvel_max              =   1.4884346520097E-02
(PID.TID 0000.0001) %MON advcfl_W_hf_max              =   1.4884346520097E-02
(PID.TID 0000.0001) %MON pe_b_mean                    =  -6.8116196799091E-01
(PID.TID 0000.0001) %MON ke_max                       =   1.8833315065612E-03
(PID.TID 0000.0001) %MON ke_mean                      =   1.9873911484880E-06
(PID.TID 0000.0001) %MON ke_vol                       =   4.6183228217809E+12
(PID.TID 0000.0001) // =======================================================
(PID.TID 0000.0001) // End MONITOR dynamic field statistics
(PID.TID 0000.0001) // =======================================================
(PID.TID 0000.0001) // =======================================================
(PID.TID 0000.0001) // Begin OBCS MONITOR field statistics
(PID.TID 0000.0001) // =======================================================
(PID.TID 0000.0001) %MON obc_N_vVel_max               =   7.5347142694022E-08
(PID.TID 0000.0001) %MON obc_N_vVel_min               =   7.5347142694022E-08
(PID.TID 0000.0001) %MON obc_N_vVel_mean              =   7.5347142694022E-08
(PID.TID 0000.0001) %MON obc_N_vVel_sd                =  -2.1535902712534E-28
(PID.TID 0000.0001) %MON obc_N_vVel_Int               =   4.9729114178055E+00
(PID.TID 0000.0001) // =======================================================
(PID.TID 0000.0001) // End OBCS MONITOR field statistics
(PID.TID 0000.0001) // =======================================================
 cg2d: Sum(rhs),rhsMax =   3.00537614622859E+00  4.53037946119416E+02
(PID.TID 0000.0001)      cg2d_init_res =   6.25828708960356E-06
(PID.TID 0000.0001)      cg2d_iters(min,last) =      -1      79
(PID.TID 0000.0001)      cg2d_last_res =   8.82403357416557E-12
(PID.TID 0000.0001) // =======================================================
(PID.TID 0000.0001) // Begin MONITOR dynamic field statistics
(PID.TID 0000.0001) // =======================================================
(PID.TID 0000.0001) %MON time_tsnumber                =                  1500
(PID.TID 0000.0001) %MON time_secondsf                =   1.5000000000000E+05
(PID.TID 0000.0001) %MON dynstat_eta_max              =   5.7996772735919E+00
(PID.TID 0000.0001) %MON dynstat_eta_min              =  -1.4164820228020E+01
(PID.TID 0000.0001) %MON dynstat_eta_mean             =  -2.5213878455624E+00
(PID.TID 0000.0001) %MON dynstat_eta_sd               =   4.9403057655342E+00
(PID.TID 0000.0001) %MON dynstat_eta_del2             =   1.9059581004514E-01
(PID.TID 0000.0001) %MON dynstat_uvel_max             =   1.4071740530153E-02
(PID.TID 0000.0001) %MON dynstat_uvel_min             =  -6.3695148888979E-02
(PID.TID 0000.0001) %MON dynstat_uvel_mean            =   6.3813738197534E-09
(PID.TID 0000.0001) %MON dynstat_uvel_sd              =   1.8481327113329E-03
(PID.TID 0000.0001) %MON dynstat_uvel_del2            =   2.8934625481066E-06
(PID.TID 0000.0001) %MON dynstat_vvel_max             =   3.5860168033520E-02
(PID.TID 0000.0001) %MON dynstat_vvel_min             =  -1.9372948197345E-02
(PID.TID 0000.0001) %MON dynstat_vvel_mean            =   1.2519291543624E-07
(PID.TID 0000.0001) %MON dynstat_vvel_sd              =   7.9998874824847E-04
(PID.TID 0000.0001) %MON dynstat_vvel_del2            =   2.0652413872512E-06
(PID.TID 0000.0001) %MON dynstat_wvel_max             =   2.3759021281212E-03
(PID.TID 0000.0001) %MON dynstat_wvel_min             =  -2.9800624966105E-03
(PID.TID 0000.0001) %MON dynstat_wvel_mean            =   4.9278215728229E-10
(PID.TID 0000.0001) %MON dynstat_wvel_sd              =   4.0123880081260E-05
(PID.TID 0000.0001) %MON dynstat_wvel_del2            =   1.5031170951565E-07
(PID.TID 0000.0001) %MON dynstat_theta_max            =   1.2000000000000E+00
(PID.TID 0000.0001) %MON dynstat_theta_min            =  -1.0000000000000E+00
(PID.TID 0000.0001) %MON dynstat_theta_mean           =   5.6480345966192E-01
(PID.TID 0000.0001) %MON dynstat_theta_sd             =   8.4879292667942E-01
(PID.TID 0000.0001) %MON dynstat_theta_del2           =   5.6932808920842E-06
(PID.TID 0000.0001) %MON dynstat_salt_max             =   3.4700000000000E+01
(PID.TID 0000.0001) %MON dynstat_salt_min             =   3.4000000000000E+01
(PID.TID 0000.0001) %MON dynstat_salt_mean            =   3.4497835489788E+01
(PID.TID 0000.0001) %MON dynstat_salt_sd              =   2.7005745377223E-01
(PID.TID 0000.0001) %MON dynstat_salt_del2            =   2.2563665371110E-06
(PID.TID 0000.0001) %MON advcfl_uvel_max              =   6.3695148888979E-03
(PID.TID 0000.0001) %MON advcfl_vvel_max              =   3.5860168033520E-03
(PID.TID 0000.0001) %MON advcfl_wvel_max              =   1.4900312483053E-02
(PID.TID 0000.0001) %MON advcfl_W_hf_max              =   1.4900312483053E-02
(PID.TID 0000.0001) %MON pe_b_mean                    =  -6.8115855303041E-01
(PID.TID 0000.0001) %MON ke_max                       =   1.8910419776448E-03
(PID.TID 0000.0001) %MON ke_mean                      =   1.9956751362698E-06
(PID.TID 0000.0001) %MON ke_vol                       =   4.6183228889227E+12
(PID.TID 0000.0001) // =======================================================
(PID.TID 0000.0001) // End MONITOR dynamic field statistics
(PID.TID 0000.0001) // =======================================================
(PID.TID 0000.0001) // =======================================================
(PID.TID 0000.0001) // Begin OBCS MONITOR field statistics
(PID.TID 0000.0001) // =======================================================
(PID.TID 0000.0001) %MON obc_N_vVel_max               =   7.2576764329370E-08
(PID.TID 0000.0001) %MON obc_N_vVel_min               =   7.2576764329369E-08
(PID.TID 0000.0001) %MON obc_N_vVel_mean              =   7.2576764329369E-08
(PID.TID 0000.0001) %MON obc_N_vVel_sd                =   7.5885997444281E-15
(PID.TID 0000.0001) %MON obc_N_vVel_Int               =   4.7900664457383E+00
(PID.TID 0000.0001) // =======================================================
(PID.TID 0000.0001) // End OBCS MONITOR field statistics
(PID.TID 0000.0001) // =======================================================
 cg2d: Sum(rhs),rhsMax =   3.00536276989523E+00  4.53037923540789E+02
(PID.TID 0000.0001)      cg2d_init_res =   6.26795069941004E-06
(PID.TID 0000.0001)      cg2d_iters(min,last) =      -1      79
(PID.TID 0000.0001)      cg2d_last_res =   8.84159407952606E-12
(PID.TID 0000.0001) // =======================================================
(PID.TID 0000.0001) // Begin MONITOR dynamic field statistics
(PID.TID 0000.0001) // =======================================================
(PID.TID 0000.0001) %MON time_tsnumber                =                  1501
(PID.TID 0000.0001) %MON time_secondsf                =   1.5010000000000E+05
(PID.TID 0000.0001) %MON dynstat_eta_max              =   5.7996806568375E+00
(PID.TID 0000.0001) %MON dynstat_eta_min              =  -1.4164793923776E+01
(PID.TID 0000.0001) %MON dynstat_eta_mean             =  -2.5213764977039E+00
(PID.TID 0000.0001) %MON dynstat_eta_sd               =   4.9403024949905E+00
(PID.TID 0000.0001) %MON dynstat_eta_del2             =   1.9059584428191E-01
(PID.TID 0000.0001) %MON dynstat_uvel_max             =   1.4101261110313E-02
(PID.TID 0000.0001) %MON dynstat_uvel_min             =  -6.3824739404311E-02
(PID.TID 0000.0001) %MON dynstat_uvel_mean            =   6.3870292089462E-09
(PID.TID 0000.0001) %MON dynstat_uvel_sd              =   1.8520513668042E-03
(PID.TID 0000.0001) %MON dynstat_uvel_del2            =   2.8999958227146E-06
(PID.TID 0000.0001) %MON dynstat_vvel_max             =   3.5903203329279E-02
(PID.TID 0000.0001) %MON dynstat_vvel_min             =  -1.9419374147921E-02
(PID.TID 0000.0001) %MON dynstat_vvel_mean            =   1.2274244188680E-07
(PID.TID 0000.0001) %MON dynstat_vvel_sd              =   8.0148750014134E-04
(PID.TID 0000.0001) %MON dynstat_vvel_del2            =   2.0686971326022E-06
(PID.TID 0000.0001) %MON dynstat_wvel_max             =   2.3795128802983E-03
(PID.TID 0000.0001) %MON dynstat_wvel_min             =  -2.9832341059489E-03
(PID.TID 0000.0001) %MON dynstat_wvel_mean            =   4.9584021456617E-10
(PID.TID 0000.0001) %MON dynstat_wvel_sd              =   4.0188582087194E-05
(PID.TID 0000.0001) %MON dynstat_wvel_del2            =   1.5049546456531E-07
(PID.TID 0000.0001) %MON dynstat_theta_max            =   1.2000000000000E+00
(PID.TID 0000.0001) %MON dynstat_theta_min            =  -1.0000000000000E+00
(PID.TID 0000.0001) %MON dynstat_theta_mean           =   5.6480219372171E-01
(PID.TID 0000.0001) %MON dynstat_theta_sd             =   8.4879236858708E-01
(PID.TID 0000.0001) %MON dynstat_theta_del2           =   5.7026969716399E-06
(PID.TID 0000.0001) %MON dynstat_salt_max             =   3.4700000000000E+01
(PID.TID 0000.0001) %MON dynstat_salt_min             =   3.4000000000000E+01
(PID.TID 0000.0001) %MON dynstat_salt_mean            =   3.4497834983530E+01
(PID.TID 0000.0001) %MON dynstat_salt_sd              =   2.7005724491567E-01
(PID.TID 0000.0001) %MON dynstat_salt_del2            =   2.2601093460781E-06
(PID.TID 0000.0001) %MON advcfl_uvel_max              =   6.3824739404311E-03
(PID.TID 0000.0001) %MON advcfl_vvel_max              =   3.5903203329279E-03
(PID.TID 0000.0001) %MON advcfl_wvel_max              =   1.4916170529744E-02
(PID.TID 0000.0001) %MON advcfl_W_hf_max              =   1.4916170529744E-02
(PID.TID 0000.0001) %MON pe_b_mean                    =  -6.8115513171528E-01
(PID.TID 0000.0001) %MON ke_max                       =   1.8987761434021E-03
(PID.TID 0000.0001) %MON ke_mean                      =   2.0039887973930E-06
(PID.TID 0000.0001) %MON ke_vol                       =   4.6183229561974E+12
(PID.TID 0000.0001) // =======================================================
(PID.TID 0000.0001) // End MONITOR dynamic field statistics
(PID.TID 0000.0001) // =======================================================
(PID.TID 0000.0001) // =======================================================
(PID.TID 0000.0001) // Begin OBCS MONITOR field statistics
(PID.TID 0000.0001) // =======================================================
(PID.TID 0000.0001) %MON obc_N_vVel_max               =   7.0014220988967E-08
(PID.TID 0000.0001) %MON obc_N_vVel_min               =   7.0014220988966E-08
(PID.TID 0000.0001) %MON obc_N_vVel_mean              =   7.0014220988966E-08
(PID.TID 0000.0001) %MON obc_N_vVel_sd                =   5.2545343925733E-15
(PID.TID 0000.0001) %MON obc_N_vVel_Int               =   4.6209385852718E+00
(PID.TID 0000.0001) // =======================================================
(PID.TID 0000.0001) // End OBCS MONITOR field statistics
(PID.TID 0000.0001) // =======================================================
 cg2d: Sum(rhs),rhsMax =   3.00534936785324E+00  4.53037900905869E+02
(PID.TID 0000.0001)      cg2d_init_res =   6.27758627351186E-06
(PID.TID 0000.0001)      cg2d_iters(min,last) =      -1      79
(PID.TID 0000.0001)      cg2d_last_res =   8.85914449550093E-12
(PID.TID 0000.0001) // =======================================================
(PID.TID 0000.0001) // Begin MONITOR dynamic field statistics
(PID.TID 0000.0001) // =======================================================
(PID.TID 0000.0001) %MON time_tsnumber                =                  1502
(PID.TID 0000.0001) %MON time_secondsf                =   1.5020000000000E+05
(PID.TID 0000.0001) %MON dynstat_eta_max              =   5.7996840457022E+00
(PID.TID 0000.0001) %MON dynstat_eta_min              =  -1.4164767556284E+01
(PID.TID 0000.0001) %MON dynstat_eta_mean             =  -2.5213651279648E+00
(PID.TID 0000.0001) %MON dynstat_eta_sd               =   4.9402992181562E+00
(PID.TID 0000.0001) %MON dynstat_eta_del2             =   1.9059587857027E-01
(PID.TID 0000.0001) %MON dynstat_uvel_max             =   1.4130810745554E-02
(PID.TID 0000.0001) %MON dynstat_uvel_min             =  -6.3954416040243E-02
(PID.TID 0000.0001) %MON dynstat_uvel_mean            =   6.3899739309549E-09
(PID.TID 0000.0001) %MON dynstat_uvel_sd              =   1.8559758532757E-03
(PID.TID 0000.0001) %MON dynstat_uvel_del2            =   2.9065415024411E-06
(PID.TID 0000.0001) %MON dynstat_vvel_max             =   3.5946237268129E-02
(PID.TID 0000.0001) %MON dynstat_vvel_min             =  -1.9465837545393E-02
(PID.TID 0000.0001) %MON dynstat_vvel_mean            =   1.2061521947000E-07
(PID.TID 0000.0001) %MON dynstat_vvel_sd              =   8.0298851872963E-04
(PID.TID 0000.0001) %MON dynstat_vvel_del2            =   2.0721567464953E-06
(PID.TID 0000.0001) %MON dynstat_wvel_max             =   2.3831237772235E-03
(PID.TID 0000.0001) %MON dynstat_wvel_min             =  -2.9863840115930E-03
(PID.TID 0000.0001) %MON dynstat_wvel_mean            =   4.9928131848104E-10
(PID.TID 0000.0001) %MON dynstat_wvel_sd              =   4.0253519750578E-05
(PID.TID 0000.0001) %MON dynstat_wvel_del2            =   1.5067916878417E-07
(PID.TID 0000.0001) %MON dynstat_theta_max            =   1.2000000000000E+00
(PID.TID 0000.0001) %MON dynstat_theta_min            =  -1.0000000000000E+00
(PID.TID 0000.0001) %MON dynstat_theta_mean           =   5.6480092564490E-01
(PID.TID 0000.0001) %MON dynstat_theta_sd             =   8.4879180971671E-01
(PID.TID 0000.0001) %MON dynstat_theta_del2           =   5.7121218392361E-06
(PID.TID 0000.0001) %MON dynstat_salt_max             =   3.4700000000000E+01
(PID.TID 0000.0001) %MON dynstat_salt_min             =   3.4000000000000E+01
(PID.TID 0000.0001) %MON dynstat_salt_mean            =   3.4497834476416E+01
(PID.TID 0000.0001) %MON dynstat_salt_sd              =   2.7005703578416E-01
(PID.TID 0000.0001) %MON dynstat_salt_del2            =   2.2638558364405E-06
(PID.TID 0000.0001) %MON advcfl_uvel_max              =   6.3954416040243E-03
(PID.TID 0000.0001) %MON advcfl_vvel_max              =   3.5946237268129E-03
(PID.TID 0000.0001) %MON advcfl_wvel_max              =   1.4931920057965E-02
(PID.TID 0000.0001) %MON advcfl_W_hf_max              =   1.4931920057965E-02
(PID.TID 0000.0001) %MON pe_b_mean                    =  -6.8115170411166E-01
(PID.TID 0000.0001) %MON ke_max                       =   1.9065340083760E-03
(PID.TID 0000.0001) %MON ke_mean                      =   2.0123322107706E-06
(PID.TID 0000.0001) %MON ke_vol                       =   4.6183230236036E+12
(PID.TID 0000.0001) // =======================================================
(PID.TID 0000.0001) // End MONITOR dynamic field statistics
(PID.TID 0000.0001) // =======================================================
(PID.TID 0000.0001) // =======================================================
(PID.TID 0000.0001) // Begin OBCS MONITOR field statistics
(PID.TID 0000.0001) // =======================================================
(PID.TID 0000.0001) %MON obc_N_vVel_max               =   6.7720200744736E-08
(PID.TID 0000.0001) %MON obc_N_vVel_min               =   6.7720200744735E-08
(PID.TID 0000.0001) %MON obc_N_vVel_mean              =   6.7720200744735E-08
(PID.TID 0000.0001) %MON obc_N_vVel_sd                =  -1.0255191767873E-29
(PID.TID 0000.0001) %MON obc_N_vVel_Int               =   4.4695332491525E+00
(PID.TID 0000.0001) // =======================================================
(PID.TID 0000.0001) // End OBCS MONITOR field statistics
(PID.TID 0000.0001) // =======================================================
 cg2d: Sum(rhs),rhsMax =   3.00533594043659E+00  4.53037878224873E+02
(PID.TID 0000.0001)      cg2d_init_res =   6.28719461524404E-06
(PID.TID 0000.0001)      cg2d_iters(min,last) =      -1      79
(PID.TID 0000.0001)      cg2d_last_res =   8.87666733966011E-12
(PID.TID 0000.0001) // =======================================================
(PID.TID 0000.0001) // Begin MONITOR dynamic field statistics
(PID.TID 0000.0001) // =======================================================
(PID.TID 0000.0001) %MON time_tsnumber                =                  1503
(PID.TID 0000.0001) %MON time_secondsf                =   1.5030000000000E+05
(PID.TID 0000.0001) %MON dynstat_eta_max              =   5.7996874394969E+00
(PID.TID 0000.0001) %MON dynstat_eta_min              =  -1.4164741126245E+01
(PID.TID 0000.0001) %MON dynstat_eta_mean             =  -2.5213537366821E+00
(PID.TID 0000.0001) %MON dynstat_eta_sd               =   4.9402959351879E+00
(PID.TID 0000.0001) %MON dynstat_eta_del2             =   1.9059591291061E-01
(PID.TID 0000.0001) %MON dynstat_uvel_max             =   1.4160389350350E-02
(PID.TID 0000.0001) %MON dynstat_uvel_min             =  -6.4084178765462E-02
(PID.TID 0000.0001) %MON dynstat_uvel_mean            =   6.3905309034255E-09
(PID.TID 0000.0001) %MON dynstat_uvel_sd              =   1.8599061680822E-03
(PID.TID 0000.0001) %MON dynstat_uvel_del2            =   2.9130996014276E-06
(PID.TID 0000.0001) %MON dynstat_vvel_max             =   3.5989269753758E-02
(PID.TID 0000.0001) %MON dynstat_vvel_min             =  -1.9512337551799E-02
(PID.TID 0000.0001) %MON dynstat_vvel_mean            =   1.1886356664655E-07
(PID.TID 0000.0001) %MON dynstat_vvel_sd              =   8.0449180833722E-04
(PID.TID 0000.0001) %MON dynstat_vvel_del2            =   2.0756202652887E-06
(PID.TID 0000.0001) %MON dynstat_wvel_max             =   2.3867347985050E-03
(PID.TID 0000.0001) %MON dynstat_wvel_min             =  -2.9895120939482E-03
(PID.TID 0000.0001) %MON dynstat_wvel_mean            =   5.0304427625724E-10
(PID.TID 0000.0001) %MON dynstat_wvel_sd              =   4.0318714828137E-05
(PID.TID 0000.0001) %MON dynstat_wvel_del2            =   1.5086301513451E-07
(PID.TID 0000.0001) %MON dynstat_theta_max            =   1.2000000000000E+00
(PID.TID 0000.0001) %MON dynstat_theta_min            =  -1.0000000000000E+00
(PID.TID 0000.0001) %MON dynstat_theta_mean           =   5.6479965542870E-01
(PID.TID 0000.0001) %MON dynstat_theta_sd             =   8.4879125006715E-01
(PID.TID 0000.0001) %MON dynstat_theta_del2           =   5.7215553691811E-06
(PID.TID 0000.0001) %MON dynstat_salt_max             =   3.4700000000000E+01
(PID.TID 0000.0001) %MON dynstat_salt_min             =   3.4000000000000E+01
(PID.TID 0000.0001) %MON dynstat_salt_mean            =   3.4497833968445E+01
(PID.TID 0000.0001) %MON dynstat_salt_sd              =   2.7005682637738E-01
(PID.TID 0000.0001) %MON dynstat_salt_del2            =   2.2676059713588E-06
(PID.TID 0000.0001) %MON advcfl_uvel_max              =   6.4084178765462E-03
(PID.TID 0000.0001) %MON advcfl_vvel_max              =   3.5989269753758E-03
(PID.TID 0000.0001) %MON advcfl_wvel_max              =   1.4947560469741E-02
(PID.TID 0000.0001) %MON advcfl_W_hf_max              =   1.4947560469741E-02
(PID.TID 0000.0001) %MON pe_b_mean                    =  -6.8114827029633E-01
(PID.TID 0000.0001) %MON ke_max                       =   1.9143155762151E-03
(PID.TID 0000.0001) %MON ke_mean                      =   2.0207054525886E-06
(PID.TID 0000.0001) %MON ke_vol                       =   4.6183230911399E+12
(PID.TID 0000.0001) // =======================================================
(PID.TID 0000.0001) // End MONITOR dynamic field statistics
(PID.TID 0000.0001) // =======================================================
(PID.TID 0000.0001) // =======================================================
(PID.TID 0000.0001) // Begin OBCS MONITOR field statistics
(PID.TID 0000.0001) // =======================================================
(PID.TID 0000.0001) %MON obc_N_vVel_max               =   6.5749094226868E-08
(PID.TID 0000.0001) %MON obc_N_vVel_min               =   6.5749094226867E-08
(PID.TID 0000.0001) %MON obc_N_vVel_mean              =   6.5749094226867E-08
(PID.TID 0000.0001) %MON obc_N_vVel_sd                =   1.1648350771591E-14
(PID.TID 0000.0001) %MON obc_N_vVel_Int               =   4.3394402189732E+00
(PID.TID 0000.0001) // =======================================================
(PID.TID 0000.0001) // End OBCS MONITOR field statistics
(PID.TID 0000.0001) // =======================================================
 cg2d: Sum(rhs),rhsMax =   3.00532248804169E+00  4.53037855508157E+02
(PID.TID 0000.0001)      cg2d_init_res =   6.29677895078455E-06
(PID.TID 0000.0001)      cg2d_iters(min,last) =      -1      79
(PID.TID 0000.0001)      cg2d_last_res =   8.89416438448843E-12
(PID.TID 0000.0001) // =======================================================
(PID.TID 0000.0001) // Begin MONITOR dynamic field statistics
(PID.TID 0000.0001) // =======================================================
(PID.TID 0000.0001) %MON time_tsnumber                =                  1504
(PID.TID 0000.0001) %MON time_secondsf                =   1.5040000000000E+05
(PID.TID 0000.0001) %MON dynstat_eta_max              =   5.7996908374685E+00
(PID.TID 0000.0001) %MON dynstat_eta_min              =  -1.4164714634453E+01
(PID.TID 0000.0001) %MON dynstat_eta_mean             =  -2.5213423242460E+00
(PID.TID 0000.0001) %MON dynstat_eta_sd               =   4.9402926462539E+00
(PID.TID 0000.0001) %MON dynstat_eta_del2             =   1.9059594730341E-01
(PID.TID 0000.0001) %MON dynstat_uvel_max             =   1.4189996838711E-02
(PID.TID 0000.0001) %MON dynstat_uvel_min             =  -6.4214027552094E-02
(PID.TID 0000.0001) %MON dynstat_uvel_mean            =   6.3890705641813E-09
(PID.TID 0000.0001) %MON dynstat_uvel_sd              =   1.8638423084838E-03
(PID.TID 0000.0001) %MON dynstat_uvel_del2            =   2.9196701337222E-06
(PID.TID 0000.0001) %MON dynstat_vvel_max             =   3.6032300687964E-02
(PID.TID 0000.0001) %MON dynstat_vvel_min             =  -1.9558873321797E-02
(PID.TID 0000.0001) %MON dynstat_vvel_mean            =   1.1753125499354E-07
(PID.TID 0000.0001) %MON dynstat_vvel_sd              =   8.0599736963632E-04
(PID.TID 0000.0001) %MON dynstat_vvel_del2            =   2.0790877195843E-06
(PID.TID 0000.0001) %MON dynstat_wvel_max             =   2.3903459237393E-03
(PID.TID 0000.0001) %MON dynstat_wvel_min             =  -2.9926182342239E-03
(PID.TID 0000.0001) %MON dynstat_wvel_mean            =   5.0706152554204E-10
(PID.TID 0000.0001) %MON dynstat_wvel_sd              =   4.0384181738509E-05
(PID.TID 0000.0001) %MON dynstat_wvel_del2            =   1.5104720646734E-07
(PID.TID 0000.0001) %MON dynstat_theta_max            =   1.2000000000000E+00
(PID.TID 0000.0001) %MON dynstat_theta_min            =  -1.0000000000000E+00
(PID.TID 0000.0001) %MON dynstat_theta_mean           =   5.6479838307041E-01
(PID.TID 0000.0001) %MON dynstat_theta_sd             =   8.4879068963989E-01
(PID.TID 0000.0001) %MON dynstat_theta_del2           =   5.7310009352370E-06
(PID.TID 0000.0001) %MON dynstat_salt_max             =   3.4700000000000E+01
(PID.TID 0000.0001) %MON dynstat_salt_min             =   3.4000000000000E+01
(PID.TID 0000.0001) %MON dynstat_salt_mean            =   3.4497833459616E+01
(PID.TID 0000.0001) %MON dynstat_salt_sd              =   2.7005661669539E-01
(PID.TID 0000.0001) %MON dynstat_salt_del2            =   2.2713597202300E-06
(PID.TID 0000.0001) %MON advcfl_uvel_max              =   6.4214027552094E-03
(PID.TID 0000.0001) %MON advcfl_vvel_max              =   3.6032300687964E-03
(PID.TID 0000.0001) %MON advcfl_wvel_max              =   1.4963091171119E-02
(PID.TID 0000.0001) %MON advcfl_W_hf_max              =   1.4963091171119E-02
(PID.TID 0000.0001) %MON pe_b_mean                    =  -6.8114483035514E-01
(PID.TID 0000.0001) %MON ke_max                       =   1.9221208497489E-03
(PID.TID 0000.0001) %MON ke_mean                      =   2.0291085960528E-06
(PID.TID 0000.0001) %MON ke_vol                       =   4.6183231588041E+12
(PID.TID 0000.0001) // =======================================================
(PID.TID 0000.0001) // End MONITOR dynamic field statistics
(PID.TID 0000.0001) // =======================================================
(PID.TID 0000.0001) // =======================================================
(PID.TID 0000.0001) // Begin OBCS MONITOR field statistics
(PID.TID 0000.0001) // =======================================================
(PID.TID 0000.0001) %MON obc_N_vVel_max               =   6.4147867910616E-08
(PID.TID 0000.0001) %MON obc_N_vVel_min               =   6.4147867910615E-08
(PID.TID 0000.0001) %MON obc_N_vVel_mean              =   6.4147867910615E-08
(PID.TID 0000.0001) %MON obc_N_vVel_sd                =   1.1783018260144E-14
(PID.TID 0000.0001) %MON obc_N_vVel_Int               =   4.2337592821006E+00
(PID.TID 0000.0001) // =======================================================
(PID.TID 0000.0001) // End OBCS MONITOR field statistics
(PID.TID 0000.0001) // =======================================================
 cg2d: Sum(rhs),rhsMax =   3.00530901111652E+00  4.53037832765955E+02
(PID.TID 0000.0001)      cg2d_init_res =   6.30631688889299E-06
(PID.TID 0000.0001)      cg2d_iters(min,last) =      -1      79
(PID.TID 0000.0001)      cg2d_last_res =   8.91163677045774E-12
(PID.TID 0000.0001) // =======================================================
(PID.TID 0000.0001) // Begin MONITOR dynamic field statistics
(PID.TID 0000.0001) // =======================================================
(PID.TID 0000.0001) %MON time_tsnumber                =                  1505
(PID.TID 0000.0001) %MON time_secondsf                =   1.5050000000000E+05
(PID.TID 0000.0001) %MON dynstat_eta_max              =   5.7996942388088E+00
(PID.TID 0000.0001) %MON dynstat_eta_min              =  -1.4164688081779E+01
(PID.TID 0000.0001) %MON dynstat_eta_mean             =  -2.5213308910893E+00
(PID.TID 0000.0001) %MON dynstat_eta_sd               =   4.9402893515243E+00
(PID.TID 0000.0001) %MON dynstat_eta_del2             =   1.9059598174889E-01
(PID.TID 0000.0001) %MON dynstat_uvel_max             =   1.4219633124073E-02
(PID.TID 0000.0001) %MON dynstat_uvel_min             =  -6.4343962375442E-02
(PID.TID 0000.0001) %MON dynstat_uvel_mean            =   6.3859991565057E-09
(PID.TID 0000.0001) %MON dynstat_uvel_sd              =   1.8677842716767E-03
(PID.TID 0000.0001) %MON dynstat_uvel_del2            =   2.9262531133655E-06
(PID.TID 0000.0001) %MON dynstat_vvel_max             =   3.6075329970505E-02
(PID.TID 0000.0001) %MON dynstat_vvel_min             =  -1.9605444002707E-02
(PID.TID 0000.0001) %MON dynstat_vvel_mean            =   1.1665264345926E-07
(PID.TID 0000.0001) %MON dynstat_vvel_sd              =   8.0750519949875E-04
(PID.TID 0000.0001) %MON dynstat_vvel_del2            =   2.0825591305617E-06
(PID.TID 0000.0001) %MON dynstat_wvel_max             =   2.3939571324992E-03
(PID.TID 0000.0001) %MON dynstat_wvel_min             =  -2.9957023143464E-03
(PID.TID 0000.0001) %MON dynstat_wvel_mean            =   5.1126078520794E-10
(PID.TID 0000.0001) %MON dynstat_wvel_sd              =   4.0449925749122E-05
(PID.TID 0000.0001) %MON dynstat_wvel_del2            =   1.5123193806667E-07
(PID.TID 0000.0001) %MON dynstat_theta_max            =   1.2000000000000E+00
(PID.TID 0000.0001) %MON dynstat_theta_min            =  -1.0000000000000E+00
(PID.TID 0000.0001) %MON dynstat_theta_mean           =   5.6479710856731E-01
(PID.TID 0000.0001) %MON dynstat_theta_sd             =   8.4879012843288E-01
(PID.TID 0000.0001) %MON dynstat_theta_del2           =   5.7404558368178E-06
(PID.TID 0000.0001) %MON dynstat_salt_max             =   3.4700000000000E+01
(PID.TID 0000.0001) %MON dynstat_salt_min             =   3.4000000000000E+01
(PID.TID 0000.0001) %MON dynstat_salt_mean            =   3.4497832949928E+01
(PID.TID 0000.0001) %MON dynstat_salt_sd              =   2.7005640673793E-01
(PID.TID 0000.0001) %MON dynstat_salt_del2            =   2.2751170024894E-06
(PID.TID 0000.0001) %MON advcfl_uvel_max              =   6.4343962375442E-03
(PID.TID 0000.0001) %MON advcfl_vvel_max              =   3.6075329970505E-03
(PID.TID 0000.0001) %MON advcfl_wvel_max              =   1.4978511571732E-02
(PID.TID 0000.0001) %MON advcfl_W_hf_max              =   1.4978511571732E-02
(PID.TID 0000.0001) %MON pe_b_mean                    =  -6.8114138438070E-01
(PID.TID 0000.0001) %MON ke_max                       =   1.9299498309829E-03
(PID.TID 0000.0001) %MON ke_mean                      =   2.0375417112597E-06
(PID.TID 0000.0001) %MON ke_vol                       =   4.6183232265940E+12
(PID.TID 0000.0001) // =======================================================
(PID.TID 0000.0001) // End MONITOR dynamic field statistics
(PID.TID 0000.0001) // =======================================================
(PID.TID 0000.0001) // =======================================================
(PID.TID 0000.0001) // Begin OBCS MONITOR field statistics
(PID.TID 0000.0001) // =======================================================
(PID.TID 0000.0001) %MON obc_N_vVel_max               =   6.2955126548445E-08
(PID.TID 0000.0001) %MON obc_N_vVel_min               =   6.2955126548443E-08
(PID.TID 0000.0001) %MON obc_N_vVel_mean              =   6.2955126548445E-08
(PID.TID 0000.0001) %MON obc_N_vVel_sd                =  -1.5303901561288E-28
(PID.TID 0000.0001) %MON obc_N_vVel_Int               =   4.1550383521974E+00
(PID.TID 0000.0001) // =======================================================
(PID.TID 0000.0001) // End OBCS MONITOR field statistics
(PID.TID 0000.0001) // =======================================================
 cg2d: Sum(rhs),rhsMax =   3.00529551015063E+00  4.53037810008165E+02
(PID.TID 0000.0001)      cg2d_init_res =   6.31585732889402E-06
(PID.TID 0000.0001)      cg2d_iters(min,last) =      -1      79
(PID.TID 0000.0001)      cg2d_last_res =   8.92905295400251E-12
(PID.TID 0000.0001) // =======================================================
(PID.TID 0000.0001) // Begin MONITOR dynamic field statistics
(PID.TID 0000.0001) // =======================================================
(PID.TID 0000.0001) %MON time_tsnumber                =                  1506
(PID.TID 0000.0001) %MON time_secondsf                =   1.5060000000000E+05
(PID.TID 0000.0001) %MON dynstat_eta_max              =   5.7996976426569E+00
(PID.TID 0000.0001) %MON dynstat_eta_min              =  -1.4164661469086E+01
(PID.TID 0000.0001) %MON dynstat_eta_mean             =  -2.5213194376778E+00
(PID.TID 0000.0001) %MON dynstat_eta_sd               =   4.9402860511764E+00
(PID.TID 0000.0001) %MON dynstat_eta_del2             =   1.9059601624763E-01
(PID.TID 0000.0001) %MON dynstat_uvel_max             =   1.4249298119453E-02
(PID.TID 0000.0001) %MON dynstat_uvel_min             =  -6.4473983214096E-02
(PID.TID 0000.0001) %MON dynstat_uvel_mean            =   6.3817555752090E-09
(PID.TID 0000.0001) %MON dynstat_uvel_sd              =   1.8717320547678E-03
(PID.TID 0000.0001) %MON dynstat_uvel_del2            =   2.9328485542954E-06
(PID.TID 0000.0001) %MON dynstat_vvel_max             =   3.6118357499049E-02
(PID.TID 0000.0001) %MON dynstat_vvel_min             =  -1.9652048729952E-02
(PID.TID 0000.0001) %MON dynstat_vvel_mean            =   1.1625200140624E-07
(PID.TID 0000.0001) %MON dynstat_vvel_sd              =   8.0901529093965E-04
(PID.TID 0000.0001) %MON dynstat_vvel_del2            =   2.0860345078938E-06
(PID.TID 0000.0001) %MON dynstat_wvel_max             =   2.3975684043183E-03
(PID.TID 0000.0001) %MON dynstat_wvel_min             =  -2.9987642178262E-03
(PID.TID 0000.0001) %MON dynstat_wvel_mean            =   5.1556618619790E-10
(PID.TID 0000.0001) %MON dynstat_wvel_sd              =   4.0515941458134E-05
(PID.TID 0000.0001) %MON dynstat_wvel_del2            =   1.5141737979300E-07
(PID.TID 0000.0001) %MON dynstat_theta_max            =   1.2000000000000E+00
(PID.TID 0000.0001) %MON dynstat_theta_min            =  -1.0000000000000E+00
(PID.TID 0000.0001) %MON dynstat_theta_mean           =   5.6479583191665E-01
(PID.TID 0000.0001) %MON dynstat_theta_sd             =   8.4878956644523E-01
(PID.TID 0000.0001) %MON dynstat_theta_del2           =   5.7499191718636E-06
(PID.TID 0000.0001) %MON dynstat_salt_max             =   3.4700000000000E+01
(PID.TID 0000.0001) %MON dynstat_salt_min             =   3.4000000000000E+01
(PID.TID 0000.0001) %MON dynstat_salt_mean            =   3.4497832439381E+01
(PID.TID 0000.0001) %MON dynstat_salt_sd              =   2.7005619650514E-01
(PID.TID 0000.0001) %MON dynstat_salt_del2            =   2.2788778534247E-06
(PID.TID 0000.0001) %MON advcfl_uvel_max              =   6.4473983214096E-03
(PID.TID 0000.0001) %MON advcfl_vvel_max              =   3.6118357499049E-03
(PID.TID 0000.0001) %MON advcfl_wvel_max              =   1.4993821089131E-02
(PID.TID 0000.0001) %MON advcfl_W_hf_max              =   1.4993821089131E-02
(PID.TID 0000.0001) %MON pe_b_mean                    =  -6.8113793247016E-01
(PID.TID 0000.0001) %MON ke_max                       =   1.9378025210817E-03
(PID.TID 0000.0001) %MON ke_mean                      =   2.0460048650734E-06
(PID.TID 0000.0001) %MON ke_vol                       =   4.6183232945069E+12
(PID.TID 0000.0001) // =======================================================
(PID.TID 0000.0001) // End MONITOR dynamic field statistics
(PID.TID 0000.0001) // =======================================================
(PID.TID 0000.0001) // =======================================================
(PID.TID 0000.0001) // Begin OBCS MONITOR field statistics
(PID.TID 0000.0001) // =======================================================
(PID.TID 0000.0001) %MON obc_N_vVel_max               =   6.2200326065142E-08
(PID.TID 0000.0001) %MON obc_N_vVel_min               =   6.2200326065141E-08
(PID.TID 0000.0001) %MON obc_N_vVel_mean              =   6.2200326065142E-08
(PID.TID 0000.0001) %MON obc_N_vVel_sd                =  -2.8714536950045E-28
(PID.TID 0000.0001) %MON obc_N_vVel_Int               =   4.1052215202994E+00
(PID.TID 0000.0001) // =======================================================
(PID.TID 0000.0001) // End OBCS MONITOR field statistics
(PID.TID 0000.0001) // =======================================================
 cg2d: Sum(rhs),rhsMax =   3.00528198566300E+00  4.53037787244139E+02
(PID.TID 0000.0001)      cg2d_init_res =   6.32539031526059E-06
(PID.TID 0000.0001)      cg2d_iters(min,last) =      -1      79
(PID.TID 0000.0001)      cg2d_last_res =   8.94642375943031E-12
(PID.TID 0000.0001) // =======================================================
(PID.TID 0000.0001) // Begin MONITOR dynamic field statistics
(PID.TID 0000.0001) // =======================================================
(PID.TID 0000.0001) %MON time_tsnumber                =                  1507
(PID.TID 0000.0001) %MON time_secondsf                =   1.5070000000000E+05
(PID.TID 0000.0001) %MON dynstat_eta_max              =   5.7997010481607E+00
(PID.TID 0000.0001) %MON dynstat_eta_min              =  -1.4164634797329E+01
(PID.TID 0000.0001) %MON dynstat_eta_mean             =  -2.5213079644990E+00
(PID.TID 0000.0001) %MON dynstat_eta_sd               =   4.9402827453851E+00
(PID.TID 0000.0001) %MON dynstat_eta_del2             =   1.9059605080013E-01
(PID.TID 0000.0001) %MON dynstat_uvel_max             =   1.4278991737007E-02
(PID.TID 0000.0001) %MON dynstat_uvel_min             =  -6.4604090048825E-02
(PID.TID 0000.0001) %MON dynstat_uvel_mean            =   6.3767994844058E-09
(PID.TID 0000.0001) %MON dynstat_uvel_sd              =   1.8756856548117E-03
(PID.TID 0000.0001) %MON dynstat_uvel_del2            =   2.9394564702602E-06
(PID.TID 0000.0001) %MON dynstat_vvel_max             =   3.6161383169128E-02
(PID.TID 0000.0001) %MON dynstat_vvel_min             =  -1.9698686579112E-02
(PID.TID 0000.0001) %MON dynstat_vvel_mean            =   1.1634303949008E-07
(PID.TID 0000.0001) %MON dynstat_vvel_sd              =   8.1052763317483E-04
(PID.TID 0000.0001) %MON dynstat_vvel_del2            =   2.0895138468774E-06
(PID.TID 0000.0001) %MON dynstat_wvel_max             =   2.4011797186823E-03
(PID.TID 0000.0001) %MON dynstat_wvel_min             =  -3.0018038384096E-03
(PID.TID 0000.0001) %MON dynstat_wvel_mean            =   5.1989976002259E-10
(PID.TID 0000.0001) %MON dynstat_wvel_sd              =   4.0582211771441E-05
(PID.TID 0000.0001) %MON dynstat_wvel_del2            =   1.5160365971669E-07
(PID.TID 0000.0001) %MON dynstat_theta_max            =   1.2000000000000E+00
(PID.TID 0000.0001) %MON dynstat_theta_min            =  -1.0000000000000E+00
(PID.TID 0000.0001) %MON dynstat_theta_mean           =   5.6479455311568E-01
(PID.TID 0000.0001) %MON dynstat_theta_sd             =   8.4878900367684E-01
(PID.TID 0000.0001) %MON dynstat_theta_del2           =   5.7593909226540E-06
(PID.TID 0000.0001) %MON dynstat_salt_max             =   3.4700000000000E+01
(PID.TID 0000.0001) %MON dynstat_salt_min             =   3.4000000000000E+01
(PID.TID 0000.0001) %MON dynstat_salt_mean            =   3.4497831927972E+01
(PID.TID 0000.0001) %MON dynstat_salt_sd              =   2.7005598599707E-01
(PID.TID 0000.0001) %MON dynstat_salt_del2            =   2.2826422668638E-06
(PID.TID 0000.0001) %MON advcfl_uvel_max              =   6.4604090048825E-03
(PID.TID 0000.0001) %MON advcfl_vvel_max              =   3.6161383169128E-03
(PID.TID 0000.0001) %MON advcfl_wvel_max              =   1.5009019192048E-02
(PID.TID 0000.0001) %MON advcfl_W_hf_max              =   1.5009019192048E-02
(PID.TID 0000.0001) %MON pe_b_mean                    =  -6.8113447472289E-01
(PID.TID 0000.0001) %MON ke_max                       =   1.9456789203423E-03
(PID.TID 0000.0001) %MON ke_mean                      =   2.0544981212104E-06
(PID.TID 0000.0001) %MON ke_vol                       =   4.6183233625402E+12
(PID.TID 0000.0001) // =======================================================
(PID.TID 0000.0001) // End MONITOR dynamic field statistics
(PID.TID 0000.0001) // =======================================================
(PID.TID 0000.0001) // =======================================================
(PID.TID 0000.0001) // Begin OBCS MONITOR field statistics
(PID.TID 0000.0001) // =======================================================
(PID.TID 0000.0001) %MON obc_N_vVel_max               =   6.1903209574365E-08
(PID.TID 0000.0001) %MON obc_N_vVel_min               =   6.1903209574363E-08
(PID.TID 0000.0001) %MON obc_N_vVel_mean              =   6.1903209574365E-08
(PID.TID 0000.0001) %MON obc_N_vVel_sd                =  -1.1596255306749E-28
(PID.TID 0000.0001) %MON obc_N_vVel_Int               =   4.0856118319081E+00
(PID.TID 0000.0001) // =======================================================
(PID.TID 0000.0001) // End OBCS MONITOR field statistics
(PID.TID 0000.0001) // =======================================================
 cg2d: Sum(rhs),rhsMax =   3.00526843819003E+00  4.53037764482481E+02
(PID.TID 0000.0001)      cg2d_init_res =   6.33491320509805E-06
(PID.TID 0000.0001)      cg2d_iters(min,last) =      -1      79
(PID.TID 0000.0001)      cg2d_last_res =   8.96374358503318E-12
(PID.TID 0000.0001) // =======================================================
(PID.TID 0000.0001) // Begin MONITOR dynamic field statistics
(PID.TID 0000.0001) // =======================================================
(PID.TID 0000.0001) %MON time_tsnumber                =                  1508
(PID.TID 0000.0001) %MON time_secondsf                =   1.5080000000000E+05
(PID.TID 0000.0001) %MON dynstat_eta_max              =   5.7997044544534E+00
(PID.TID 0000.0001) %MON dynstat_eta_min              =  -1.4164608067447E+01
(PID.TID 0000.0001) %MON dynstat_eta_mean             =  -2.5212964720507E+00
(PID.TID 0000.0001) %MON dynstat_eta_sd               =   4.9402794343164E+00
(PID.TID 0000.0001) %MON dynstat_eta_del2             =   1.9059608540667E-01
(PID.TID 0000.0001) %MON dynstat_uvel_max             =   1.4308713888615E-02
(PID.TID 0000.0001) %MON dynstat_uvel_min             =  -6.4734282863192E-02
(PID.TID 0000.0001) %MON dynstat_uvel_mean            =   6.3716032924922E-09
(PID.TID 0000.0001) %MON dynstat_uvel_sd              =   1.8796450687894E-03
(PID.TID 0000.0001) %MON dynstat_uvel_del2            =   2.9460768748983E-06
(PID.TID 0000.0001) %MON dynstat_vvel_max             =   3.6204406874118E-02
(PID.TID 0000.0001) %MON dynstat_vvel_min             =  -1.9745356618344E-02
(PID.TID 0000.0001) %MON dynstat_vvel_mean            =   1.1692872877736E-07
(PID.TID 0000.0001) %MON dynstat_vvel_sd              =   8.1204221194896E-04
(PID.TID 0000.0001) %MON dynstat_vvel_del2            =   2.0929971268783E-06
(PID.TID 0000.0001) %MON dynstat_wvel_max             =   2.4047910550566E-03
(PID.TID 0000.0001) %MON dynstat_wvel_min             =  -3.0048210701606E-03
(PID.TID 0000.0001) %MON dynstat_wvel_mean            =   5.2418385350663E-10
(PID.TID 0000.0001) %MON dynstat_wvel_sd              =   4.0648707436844E-05
(PID.TID 0000.0001) %MON dynstat_wvel_del2            =   1.5179084999476E-07
(PID.TID 0000.0001) %MON dynstat_theta_max            =   1.2000000000000E+00
(PID.TID 0000.0001) %MON dynstat_theta_min            =  -1.0000000000000E+00
(PID.TID 0000.0001) %MON dynstat_theta_mean           =   5.6479327216161E-01
(PID.TID 0000.0001) %MON dynstat_theta_sd             =   8.4878844012733E-01
(PID.TID 0000.0001) %MON dynstat_theta_del2           =   5.7688710959616E-06
(PID.TID 0000.0001) %MON dynstat_salt_max             =   3.4700000000000E+01
(PID.TID 0000.0001) %MON dynstat_salt_min             =   3.4000000000000E+01
(PID.TID 0000.0001) %MON dynstat_salt_mean            =   3.4497831415701E+01
(PID.TID 0000.0001) %MON dynstat_salt_sd              =   2.7005577521396E-01
(PID.TID 0000.0001) %MON dynstat_salt_del2            =   2.2864108814622E-06
(PID.TID 0000.0001) %MON advcfl_uvel_max              =   6.4734282863192E-03
(PID.TID 0000.0001) %MON advcfl_vvel_max              =   3.6204406874118E-03
(PID.TID 0000.0001) %MON advcfl_wvel_max              =   1.5024105350803E-02
(PID.TID 0000.0001) %MON advcfl_W_hf_max              =   1.5024105350803E-02
(PID.TID 0000.0001) %MON pe_b_mean                    =  -6.8113101123811E-01
(PID.TID 0000.0001) %MON ke_max                       =   1.9535790282005E-03
(PID.TID 0000.0001) %MON ke_mean                      =   2.0630215404359E-06
(PID.TID 0000.0001) %MON ke_vol                       =   4.6183234306909E+12
(PID.TID 0000.0001) // =======================================================
(PID.TID 0000.0001) // End MONITOR dynamic field statistics
(PID.TID 0000.0001) // =======================================================
(PID.TID 0000.0001) // =======================================================
(PID.TID 0000.0001) // Begin OBCS MONITOR field statistics
(PID.TID 0000.0001) // =======================================================
(PID.TID 0000.0001) %MON obc_N_vVel_max               =   6.2073477382512E-08
(PID.TID 0000.0001) %MON obc_N_vVel_min               =   6.2073477382510E-08
(PID.TID 0000.0001) %MON obc_N_vVel_mean              =   6.2073477382510E-08
(PID.TID 0000.0001) %MON obc_N_vVel_sd                =   1.4594260666771E-14
(PID.TID 0000.0001) %MON obc_N_vVel_Int               =   4.0968495072457E+00
(PID.TID 0000.0001) // =======================================================
(PID.TID 0000.0001) // End OBCS MONITOR field statistics
(PID.TID 0000.0001) // =======================================================
 cg2d: Sum(rhs),rhsMax =   3.00525486827446E+00  4.53037741730832E+02
(PID.TID 0000.0001)      cg2d_init_res =   6.34447371237965E-06
(PID.TID 0000.0001)      cg2d_iters(min,last) =      -1      79
(PID.TID 0000.0001)      cg2d_last_res =   8.98099222566799E-12
(PID.TID 0000.0001) // =======================================================
(PID.TID 0000.0001) // Begin MONITOR dynamic field statistics
(PID.TID 0000.0001) // =======================================================
(PID.TID 0000.0001) %MON time_tsnumber                =                  1509
(PID.TID 0000.0001) %MON time_secondsf                =   1.5090000000000E+05
(PID.TID 0000.0001) %MON dynstat_eta_max              =   5.7997078606869E+00
(PID.TID 0000.0001) %MON dynstat_eta_min              =  -1.4164581280321E+01
(PID.TID 0000.0001) %MON dynstat_eta_mean             =  -2.5212849608308E+00
(PID.TID 0000.0001) %MON dynstat_eta_sd               =   4.9402761181344E+00
(PID.TID 0000.0001) %MON dynstat_eta_del2             =   1.9059612006797E-01
(PID.TID 0000.0001) %MON dynstat_uvel_max             =   1.4338464485984E-02
(PID.TID 0000.0001) %MON dynstat_uvel_min             =  -6.4864561643308E-02
(PID.TID 0000.0001) %MON dynstat_uvel_mean            =   6.3666419886808E-09
(PID.TID 0000.0001) %MON dynstat_uvel_sd              =   1.8836102935892E-03
(PID.TID 0000.0001) %MON dynstat_uvel_del2            =   2.9527097815399E-06
(PID.TID 0000.0001) %MON dynstat_vvel_max             =   3.6247428505211E-02
(PID.TID 0000.0001) %MON dynstat_vvel_min             =  -1.9792057908848E-02
(PID.TID 0000.0001) %MON dynstat_vvel_mean            =   1.1800130711378E-07
(PID.TID 0000.0001) %MON dynstat_vvel_sd              =   8.1355900994868E-04
(PID.TID 0000.0001) %MON dynstat_vvel_del2            =   2.0964843115247E-06
(PID.TID 0000.0001) %MON dynstat_wvel_max             =   2.4084023928634E-03
(PID.TID 0000.0001) %MON dynstat_wvel_min             =  -3.0078158084378E-03
(PID.TID 0000.0001) %MON dynstat_wvel_mean            =   5.2834221685694E-10
(PID.TID 0000.0001) %MON dynstat_wvel_sd              =   4.0715387323574E-05
(PID.TID 0000.0001) %MON dynstat_wvel_del2            =   1.5197895712716E-07
(PID.TID 0000.0001) %MON dynstat_theta_max            =   1.2000000000000E+00
(PID.TID 0000.0001) %MON dynstat_theta_min            =  -1.0000000000000E+00
(PID.TID 0000.0001) %MON dynstat_theta_mean           =   5.6479198905165E-01
(PID.TID 0000.0001) %MON dynstat_theta_sd             =   8.4878787579596E-01
(PID.TID 0000.0001) %MON dynstat_theta_del2           =   5.7783597343059E-06
(PID.TID 0000.0001) %MON dynstat_salt_max             =   3.4700000000000E+01
(PID.TID 0000.0001) %MON dynstat_salt_min             =   3.4000000000000E+01
(PID.TID 0000.0001) %MON dynstat_salt_mean            =   3.4497830902567E+01
(PID.TID 0000.0001) %MON dynstat_salt_sd              =   2.7005556415627E-01
(PID.TID 0000.0001) %MON dynstat_salt_del2            =   2.2901843162301E-06
(PID.TID 0000.0001) %MON advcfl_uvel_max              =   6.4864561643308E-03
(PID.TID 0000.0001) %MON advcfl_vvel_max              =   3.6247428505211E-03
(PID.TID 0000.0001) %MON advcfl_wvel_max              =   1.5039079042189E-02
(PID.TID 0000.0001) %MON advcfl_W_hf_max              =   1.5039079042189E-02
(PID.TID 0000.0001) %MON pe_b_mean                    =  -6.8112754211293E-01
(PID.TID 0000.0001) %MON ke_max                       =   1.9615028432530E-03
(PID.TID 0000.0001) %MON ke_mean                      =   2.0715751808371E-06
(PID.TID 0000.0001) %MON ke_vol                       =   4.6183234989560E+12
(PID.TID 0000.0001) // =======================================================
(PID.TID 0000.0001) // End MONITOR dynamic field statistics
(PID.TID 0000.0001) // =======================================================
(PID.TID 0000.0001) // =======================================================
(PID.TID 0000.0001) // Begin OBCS MONITOR field statistics
(PID.TID 0000.0001) // =======================================================
(PID.TID 0000.0001) %MON obc_N_vVel_max               =   6.2710624662351E-08
(PID.TID 0000.0001) %MON obc_N_vVel_min               =   6.2710624662349E-08
(PID.TID 0000.0001) %MON obc_N_vVel_mean              =   6.2710624662351E-08
(PID.TID 0000.0001) %MON obc_N_vVel_sd                =  -1.8932661725304E-28
(PID.TID 0000.0001) %MON obc_N_vVel_Int               =   4.1389012277152E+00
(PID.TID 0000.0001) // =======================================================
(PID.TID 0000.0001) // End OBCS MONITOR field statistics
(PID.TID 0000.0001) // =======================================================
 cg2d: Sum(rhs),rhsMax =   3.00524127645252E+00  4.53037718995786E+02
(PID.TID 0000.0001)      cg2d_init_res =   6.35407370591853E-06
(PID.TID 0000.0001)      cg2d_iters(min,last) =      -1      79
(PID.TID 0000.0001)      cg2d_last_res =   8.99817211112876E-12
(PID.TID 0000.0001) // =======================================================
(PID.TID 0000.0001) // Begin MONITOR dynamic field statistics
(PID.TID 0000.0001) // =======================================================
(PID.TID 0000.0001) %MON time_tsnumber                =                  1510
(PID.TID 0000.0001) %MON time_secondsf                =   1.5100000000000E+05
(PID.TID 0000.0001) %MON dynstat_eta_max              =   5.7997112660572E+00
(PID.TID 0000.0001) %MON dynstat_eta_min              =  -1.4164554436855E+01
(PID.TID 0000.0001) %MON dynstat_eta_mean             =  -2.5212734313260E+00
(PID.TID 0000.0001) %MON dynstat_eta_sd               =   4.9402727969906E+00
(PID.TID 0000.0001) %MON dynstat_eta_del2             =   1.9059615478469E-01
(PID.TID 0000.0001) %MON dynstat_uvel_max             =   1.4368243440414E-02
(PID.TID 0000.0001) %MON dynstat_uvel_min             =  -6.4994926377963E-02
(PID.TID 0000.0001) %MON dynstat_uvel_mean            =   6.3623805197390E-09
(PID.TID 0000.0001) %MON dynstat_uvel_sd              =   1.8875813260094E-03
(PID.TID 0000.0001) %MON dynstat_uvel_del2            =   2.9593552031967E-06
(PID.TID 0000.0001) %MON dynstat_vvel_max             =   3.6290447951403E-02
(PID.TID 0000.0001) %MON dynstat_vvel_min             =  -1.9838789504604E-02
(PID.TID 0000.0001) %MON dynstat_vvel_mean            =   1.1954254398665E-07
(PID.TID 0000.0001) %MON dynstat_vvel_sd              =   8.1507800742408E-04
(PID.TID 0000.0001) %MON dynstat_vvel_del2            =   2.0999753493465E-06
(PID.TID 0000.0001) %MON dynstat_wvel_max             =   2.4120137114842E-03
(PID.TID 0000.0001) %MON dynstat_wvel_min             =  -3.0107879497541E-03
(PID.TID 0000.0001) %MON dynstat_wvel_mean            =   5.3230206777994E-10
(PID.TID 0000.0001) %MON dynstat_wvel_sd              =   4.0782199477790E-05
(PID.TID 0000.0001) %MON dynstat_wvel_del2            =   1.5216791731942E-07
(PID.TID 0000.0001) %MON dynstat_theta_max            =   1.2000000000000E+00
(PID.TID 0000.0001) %MON dynstat_theta_min            =  -1.0000000000000E+00
(PID.TID 0000.0001) %MON dynstat_theta_mean           =   5.6479070378310E-01
(PID.TID 0000.0001) %MON dynstat_theta_sd             =   8.4878731068251E-01
(PID.TID 0000.0001) %MON dynstat_theta_del2           =   5.7878569081534E-06
(PID.TID 0000.0001) %MON dynstat_salt_max             =   3.4700000000000E+01
(PID.TID 0000.0001) %MON dynstat_salt_min             =   3.4000000000000E+01
(PID.TID 0000.0001) %MON dynstat_salt_mean            =   3.4497830388569E+01
(PID.TID 0000.0001) %MON dynstat_salt_sd              =   2.7005535282316E-01
(PID.TID 0000.0001) %MON dynstat_salt_del2            =   2.2939613199328E-06
(PID.TID 0000.0001) %MON advcfl_uvel_max              =   6.4994926377963E-03
(PID.TID 0000.0001) %MON advcfl_vvel_max              =   3.6290447951403E-03
(PID.TID 0000.0001) %MON advcfl_wvel_max              =   1.5053939748770E-02
(PID.TID 0000.0001) %MON advcfl_W_hf_max              =   1.5053939748770E-02
(PID.TID 0000.0001) %MON pe_b_mean                    =  -6.8112406744004E-01
(PID.TID 0000.0001) %MON ke_max                       =   1.9694503632697E-03
(PID.TID 0000.0001) %MON ke_mean                      =   2.0801590983084E-06
(PID.TID 0000.0001) %MON ke_vol                       =   4.6183235673327E+12
(PID.TID 0000.0001) // =======================================================
(PID.TID 0000.0001) // End MONITOR dynamic field statistics
(PID.TID 0000.0001) // =======================================================
(PID.TID 0000.0001) // =======================================================
(PID.TID 0000.0001) // Begin OBCS MONITOR field statistics
(PID.TID 0000.0001) // =======================================================
(PID.TID 0000.0001) %MON obc_N_vVel_max               =   6.3804075836092E-08
(PID.TID 0000.0001) %MON obc_N_vVel_min               =   6.3804075836091E-08
(PID.TID 0000.0001) %MON obc_N_vVel_mean              =   6.3804075836092E-08
(PID.TID 0000.0001) %MON obc_N_vVel_sd                =  -2.9503397855266E-28
(PID.TID 0000.0001) %MON obc_N_vVel_Int               =   4.2110690051821E+00
(PID.TID 0000.0001) // =======================================================
(PID.TID 0000.0001) // End OBCS MONITOR field statistics
(PID.TID 0000.0001) // =======================================================
 cg2d: Sum(rhs),rhsMax =   3.00522766324139E+00  4.53037696282775E+02
(PID.TID 0000.0001)      cg2d_init_res =   6.36358645420124E-06
(PID.TID 0000.0001)      cg2d_iters(min,last) =      -1      79
(PID.TID 0000.0001)      cg2d_last_res =   9.01535223830477E-12
(PID.TID 0000.0001) // =======================================================
(PID.TID 0000.0001) // Begin MONITOR dynamic field statistics
(PID.TID 0000.0001) // =======================================================
(PID.TID 0000.0001) %MON time_tsnumber                =                  1511
(PID.TID 0000.0001) %MON time_secondsf                =   1.5110000000000E+05
(PID.TID 0000.0001) %MON dynstat_eta_max              =   5.7997146698091E+00
(PID.TID 0000.0001) %MON dynstat_eta_min              =  -1.4164527537889E+01
(PID.TID 0000.0001) %MON dynstat_eta_mean             =  -2.5212618840003E+00
(PID.TID 0000.0001) %MON dynstat_eta_sd               =   4.9402694709990E+00
(PID.TID 0000.0001) %MON dynstat_eta_del2             =   1.9059618955624E-01
(PID.TID 0000.0001) %MON dynstat_uvel_max             =   1.4398050658994E-02
(PID.TID 0000.0001) %MON dynstat_uvel_min             =  -6.5125377059594E-02
(PID.TID 0000.0001) %MON dynstat_uvel_mean            =   6.3592638368871E-09
(PID.TID 0000.0001) %MON dynstat_uvel_sd              =   1.8915581627800E-03
(PID.TID 0000.0001) %MON dynstat_uvel_del2            =   2.9660131528144E-06
(PID.TID 0000.0001) %MON dynstat_vvel_max             =   3.6333465099700E-02
(PID.TID 0000.0001) %MON dynstat_vvel_min             =  -1.9885550882009E-02
(PID.TID 0000.0001) %MON dynstat_vvel_mean            =   1.2152428024637E-07
(PID.TID 0000.0001) %MON dynstat_vvel_sd              =   8.1659918316642E-04
(PID.TID 0000.0001) %MON dynstat_vvel_del2            =   2.1034701745684E-06
(PID.TID 0000.0001) %MON dynstat_wvel_max             =   2.4156249903063E-03
(PID.TID 0000.0001) %MON dynstat_wvel_min             =  -3.0137373917001E-03
(PID.TID 0000.0001) %MON dynstat_wvel_mean            =   5.3599727037664E-10
(PID.TID 0000.0001) %MON dynstat_wvel_sd              =   4.0849082973828E-05
(PID.TID 0000.0001) %MON dynstat_wvel_del2            =   1.5235759663241E-07
(PID.TID 0000.0001) %MON dynstat_theta_max            =   1.2000000000000E+00
(PID.TID 0000.0001) %MON dynstat_theta_min            =  -1.0000000000000E+00
(PID.TID 0000.0001) %MON dynstat_theta_mean           =   5.6478941635326E-01
(PID.TID 0000.0001) %MON dynstat_theta_sd             =   8.4878674478696E-01
(PID.TID 0000.0001) %MON dynstat_theta_del2           =   5.7973627169458E-06
(PID.TID 0000.0001) %MON dynstat_salt_max             =   3.4700000000000E+01
(PID.TID 0000.0001) %MON dynstat_salt_min             =   3.4000000000000E+01
(PID.TID 0000.0001) %MON dynstat_salt_mean            =   3.4497829873706E+01
(PID.TID 0000.0001) %MON dynstat_salt_sd              =   2.7005514121482E-01
(PID.TID 0000.0001) %MON dynstat_salt_del2            =   2.2977418412201E-06
(PID.TID 0000.0001) %MON advcfl_uvel_max              =   6.5125377059594E-03
(PID.TID 0000.0001) %MON advcfl_vvel_max              =   3.6333465099700E-03
(PID.TID 0000.0001) %MON advcfl_wvel_max              =   1.5068686958500E-02
(PID.TID 0000.0001) %MON advcfl_W_hf_max              =   1.5068686958500E-02
(PID.TID 0000.0001) %MON pe_b_mean                    =  -6.8112058730558E-01
(PID.TID 0000.0001) %MON ke_max                       =   1.9774215852126E-03
(PID.TID 0000.0001) %MON ke_mean                      =   2.0887733473700E-06
(PID.TID 0000.0001) %MON ke_vol                       =   4.6183236358179E+12
(PID.TID 0000.0001) // =======================================================
(PID.TID 0000.0001) // End MONITOR dynamic field statistics
(PID.TID 0000.0001) // =======================================================
(PID.TID 0000.0001) // =======================================================
(PID.TID 0000.0001) // Begin OBCS MONITOR field statistics
(PID.TID 0000.0001) // =======================================================
(PID.TID 0000.0001) %MON obc_N_vVel_max               =   6.5333466270179E-08
(PID.TID 0000.0001) %MON obc_N_vVel_min               =   6.5333466270178E-08
(PID.TID 0000.0001) %MON obc_N_vVel_mean              =   6.5333466270179E-08
(PID.TID 0000.0001) %MON obc_N_vVel_sd                =  -1.4988357199199E-28
(PID.TID 0000.0001) %MON obc_N_vVel_Int               =   4.3120087738318E+00
(PID.TID 0000.0001) // =======================================================
(PID.TID 0000.0001) // End OBCS MONITOR field statistics
(PID.TID 0000.0001) // =======================================================
 cg2d: Sum(rhs),rhsMax =   3.00521402912761E+00  4.53037673595935E+02
(PID.TID 0000.0001)      cg2d_init_res =   6.37309902710630E-06
(PID.TID 0000.0001)      cg2d_iters(min,last) =      -1      79
(PID.TID 0000.0001)      cg2d_last_res =   9.03250161317043E-12
(PID.TID 0000.0001) // =======================================================
(PID.TID 0000.0001) // Begin MONITOR dynamic field statistics
(PID.TID 0000.0001) // =======================================================
(PID.TID 0000.0001) %MON time_tsnumber                =                  1512
(PID.TID 0000.0001) %MON time_secondsf                =   1.5120000000000E+05
(PID.TID 0000.0001) %MON dynstat_eta_max              =   5.7997180712629E+00
(PID.TID 0000.0001) %MON dynstat_eta_min              =  -1.4164500584051E+01
(PID.TID 0000.0001) %MON dynstat_eta_mean             =  -2.5212503192849E+00
(PID.TID 0000.0001) %MON dynstat_eta_sd               =   4.9402661402677E+00
(PID.TID 0000.0001) %MON dynstat_eta_del2             =   1.9059622438265E-01
(PID.TID 0000.0001) %MON dynstat_uvel_max             =   1.4427886053746E-02
(PID.TID 0000.0001) %MON dynstat_uvel_min             =  -6.5255913682687E-02
(PID.TID 0000.0001) %MON dynstat_uvel_mean            =   6.3577040372087E-09
(PID.TID 0000.0001) %MON dynstat_uvel_sd              =   1.8955408006047E-03
(PID.TID 0000.0001) %MON dynstat_uvel_del2            =   2.9726836429655E-06
(PID.TID 0000.0001) %MON dynstat_vvel_max             =   3.6376479835058E-02
(PID.TID 0000.0001) %MON dynstat_vvel_min             =  -1.9932341022967E-02
(PID.TID 0000.0001) %MON dynstat_vvel_mean            =   1.2390909557462E-07
(PID.TID 0000.0001) %MON dynstat_vvel_sd              =   8.1812251517681E-04
(PID.TID 0000.0001) %MON dynstat_vvel_del2            =   2.1069687097811E-06
(PID.TID 0000.0001) %MON dynstat_wvel_max             =   2.4192362086509E-03
(PID.TID 0000.0001) %MON dynstat_wvel_min             =  -3.0166640330087E-03
(PID.TID 0000.0001) %MON dynstat_wvel_mean            =   5.3936624877436E-10
(PID.TID 0000.0001) %MON dynstat_wvel_sd              =   4.0915970390017E-05
(PID.TID 0000.0001) %MON dynstat_wvel_del2            =   1.5254779932944E-07
(PID.TID 0000.0001) %MON dynstat_theta_max            =   1.2000000000000E+00
(PID.TID 0000.0001) %MON dynstat_theta_min            =  -1.0000000000000E+00
(PID.TID 0000.0001) %MON dynstat_theta_mean           =   5.6478812675940E-01
(PID.TID 0000.0001) %MON dynstat_theta_sd             =   8.4878617810850E-01
(PID.TID 0000.0001) %MON dynstat_theta_del2           =   5.8068772772668E-06
(PID.TID 0000.0001) %MON dynstat_salt_max             =   3.4700000000000E+01
(PID.TID 0000.0001) %MON dynstat_salt_min             =   3.4000000000000E+01
(PID.TID 0000.0001) %MON dynstat_salt_mean            =   3.4497829357976E+01
(PID.TID 0000.0001) %MON dynstat_salt_sd              =   2.7005492933112E-01
(PID.TID 0000.0001) %MON dynstat_salt_del2            =   2.3015259984336E-06
(PID.TID 0000.0001) %MON advcfl_uvel_max              =   6.5255913682687E-03
(PID.TID 0000.0001) %MON advcfl_vvel_max              =   3.6376479835058E-03
(PID.TID 0000.0001) %MON advcfl_wvel_max              =   1.5083320165044E-02
(PID.TID 0000.0001) %MON advcfl_W_hf_max              =   1.5083320165044E-02
(PID.TID 0000.0001) %MON pe_b_mean                    =  -6.8111710178715E-01
(PID.TID 0000.0001) %MON ke_max                       =   1.9857139985473E-03
(PID.TID 0000.0001) %MON ke_mean                      =   2.0974179817792E-06
(PID.TID 0000.0001) %MON ke_vol                       =   4.6183237044090E+12
(PID.TID 0000.0001) // =======================================================
(PID.TID 0000.0001) // End MONITOR dynamic field statistics
(PID.TID 0000.0001) // =======================================================
(PID.TID 0000.0001) // =======================================================
(PID.TID 0000.0001) // Begin OBCS MONITOR field statistics
(PID.TID 0000.0001) // =======================================================
(PID.TID 0000.0001) %MON obc_N_vVel_max               =   6.7269194823035E-08
(PID.TID 0000.0001) %MON obc_N_vVel_min               =   6.7269194823034E-08
(PID.TID 0000.0001) %MON obc_N_vVel_mean              =   6.7269194823035E-08
(PID.TID 0000.0001) %MON obc_N_vVel_sd                =  -8.4408116858648E-29
(PID.TID 0000.0001) %MON obc_N_vVel_Int               =   4.4397668583203E+00
(PID.TID 0000.0001) // =======================================================
(PID.TID 0000.0001) // End OBCS MONITOR field statistics
(PID.TID 0000.0001) // =======================================================
 cg2d: Sum(rhs),rhsMax =   3.00520037455536E+00  4.53037650938101E+02
(PID.TID 0000.0001)      cg2d_init_res =   6.38263389394529E-06
(PID.TID 0000.0001)      cg2d_iters(min,last) =      -1      79
(PID.TID 0000.0001)      cg2d_last_res =   9.04961018461404E-12
(PID.TID 0000.0001) // =======================================================
(PID.TID 0000.0001) // Begin MONITOR dynamic field statistics
(PID.TID 0000.0001) // =======================================================
(PID.TID 0000.0001) %MON time_tsnumber                =                  1513
(PID.TID 0000.0001) %MON time_secondsf                =   1.5130000000000E+05
(PID.TID 0000.0001) %MON dynstat_eta_max              =   5.7997214698202E+00
(PID.TID 0000.0001) %MON dynstat_eta_min              =  -1.4164473575996E+01
(PID.TID 0000.0001) %MON dynstat_eta_mean             =  -2.5212387375683E+00
(PID.TID 0000.0001) %MON dynstat_eta_sd               =   4.9402628048858E+00
(PID.TID 0000.0001) %MON dynstat_eta_del2             =   1.9059625926419E-01
(PID.TID 0000.0001) %MON dynstat_uvel_max             =   1.4457749534934E-02
(PID.TID 0000.0001) %MON dynstat_uvel_min             =  -6.5386536243569E-02
(PID.TID 0000.0001) %MON dynstat_uvel_mean            =   6.3580846526526E-09
(PID.TID 0000.0001) %MON dynstat_uvel_sd              =   1.8995292361200E-03
(PID.TID 0000.0001) %MON dynstat_uvel_del2            =   2.9793666867146E-06
(PID.TID 0000.0001) %MON dynstat_vvel_max             =   3.6419492040734E-02
(PID.TID 0000.0001) %MON dynstat_vvel_min             =  -1.9979158882471E-02
(PID.TID 0000.0001) %MON dynstat_vvel_mean            =   1.2665118248932E-07
(PID.TID 0000.0001) %MON dynstat_vvel_sd              =   8.1964798169488E-04
(PID.TID 0000.0001) %MON dynstat_vvel_del2            =   2.1104708702432E-06
(PID.TID 0000.0001) %MON dynstat_wvel_max             =   2.4228473458308E-03
(PID.TID 0000.0001) %MON dynstat_wvel_min             =  -3.0195677733443E-03
(PID.TID 0000.0001) %MON dynstat_wvel_mean            =   5.4235580973717E-10
(PID.TID 0000.0001) %MON dynstat_wvel_sd              =   4.0982790945856E-05
(PID.TID 0000.0001) %MON dynstat_wvel_del2            =   1.5273827893985E-07
(PID.TID 0000.0001) %MON dynstat_theta_max            =   1.2000000000000E+00
(PID.TID 0000.0001) %MON dynstat_theta_min            =  -1.0000000000000E+00
(PID.TID 0000.0001) %MON dynstat_theta_mean           =   5.6478683499877E-01
(PID.TID 0000.0001) %MON dynstat_theta_sd             =   8.4878561064789E-01
(PID.TID 0000.0001) %MON dynstat_theta_del2           =   5.8164007360134E-06
(PID.TID 0000.0001) %MON dynstat_salt_max             =   3.4700000000000E+01
(PID.TID 0000.0001) %MON dynstat_salt_min             =   3.4000000000000E+01
(PID.TID 0000.0001) %MON dynstat_salt_mean            =   3.4497828841379E+01
(PID.TID 0000.0001) %MON dynstat_salt_sd              =   2.7005471717244E-01
(PID.TID 0000.0001) %MON dynstat_salt_del2            =   2.3053138252471E-06
(PID.TID 0000.0001) %MON advcfl_uvel_max              =   6.5386536243569E-03
(PID.TID 0000.0001) %MON advcfl_vvel_max              =   3.6419492040734E-03
(PID.TID 0000.0001) %MON advcfl_wvel_max              =   1.5097838866721E-02
(PID.TID 0000.0001) %MON advcfl_W_hf_max              =   1.5097838866721E-02
(PID.TID 0000.0001) %MON pe_b_mean                    =  -6.8111361095196E-01
(PID.TID 0000.0001) %MON ke_max                       =   1.9941673700956E-03
(PID.TID 0000.0001) %MON ke_mean                      =   2.1060930552907E-06
(PID.TID 0000.0001) %MON ke_vol                       =   4.6183237731034E+12
(PID.TID 0000.0001) // =======================================================
(PID.TID 0000.0001) // End MONITOR dynamic field statistics
(PID.TID 0000.0001) // =======================================================
(PID.TID 0000.0001) // =======================================================
(PID.TID 0000.0001) // Begin OBCS MONITOR field statistics
(PID.TID 0000.0001) // =======================================================
(PID.TID 0000.0001) %MON obc_N_vVel_max               =   6.9573118524025E-08
(PID.TID 0000.0001) %MON obc_N_vVel_min               =   6.9573118524025E-08
(PID.TID 0000.0001) %MON obc_N_vVel_mean              =   6.9573118524025E-08
(PID.TID 0000.0001) %MON obc_N_vVel_sd                =  -3.2343297114061E-29
(PID.TID 0000.0001) %MON obc_N_vVel_Int               =   4.5918258225856E+00
(PID.TID 0000.0001) // =======================================================
(PID.TID 0000.0001) // End OBCS MONITOR field statistics
(PID.TID 0000.0001) // =======================================================
 cg2d: Sum(rhs),rhsMax =   3.00518669991736E+00  4.53037628310752E+02
(PID.TID 0000.0001)      cg2d_init_res =   6.39217708248412E-06
(PID.TID 0000.0001)      cg2d_iters(min,last) =      -1      79
(PID.TID 0000.0001)      cg2d_last_res =   9.06668968323357E-12
(PID.TID 0000.0001) // =======================================================
(PID.TID 0000.0001) // Begin MONITOR dynamic field statistics
(PID.TID 0000.0001) // =======================================================
(PID.TID 0000.0001) %MON time_tsnumber                =                  1514
(PID.TID 0000.0001) %MON time_secondsf                =   1.5140000000000E+05
(PID.TID 0000.0001) %MON dynstat_eta_max              =   5.7997248649850E+00
(PID.TID 0000.0001) %MON dynstat_eta_min              =  -1.4164446514238E+01
(PID.TID 0000.0001) %MON dynstat_eta_mean             =  -2.5212271391881E+00
(PID.TID 0000.0001) %MON dynstat_eta_sd               =   4.9402594649173E+00
(PID.TID 0000.0001) %MON dynstat_eta_del2             =   1.9059629420092E-01
(PID.TID 0000.0001) %MON dynstat_uvel_max             =   1.4487641012116E-02
(PID.TID 0000.0001) %MON dynstat_uvel_min             =  -6.5517244741564E-02
(PID.TID 0000.0001) %MON dynstat_uvel_mean            =   6.3607424240013E-09
(PID.TID 0000.0001) %MON dynstat_uvel_sd              =   1.9035234658937E-03
(PID.TID 0000.0001) %MON dynstat_uvel_del2            =   2.9860622969438E-06
(PID.TID 0000.0001) %MON dynstat_vvel_max             =   3.6462501598162E-02
(PID.TID 0000.0001) %MON dynstat_vvel_min             =  -2.0026003480680E-02
(PID.TID 0000.0001) %MON dynstat_vvel_mean            =   1.2969742515789E-07
(PID.TID 0000.0001) %MON dynstat_vvel_sd              =   8.2117556223874E-04
(PID.TID 0000.0001) %MON dynstat_vvel_del2            =   2.1139765692257E-06
(PID.TID 0000.0001) %MON dynstat_wvel_max             =   2.4264583811006E-03
(PID.TID 0000.0001) %MON dynstat_wvel_min             =  -3.0224485132653E-03
(PID.TID 0000.0001) %MON dynstat_wvel_mean            =   5.4492152453860E-10
(PID.TID 0000.0001) %MON dynstat_wvel_sd              =   4.1049474029832E-05
(PID.TID 0000.0001) %MON dynstat_wvel_del2            =   1.5292875453109E-07
(PID.TID 0000.0001) %MON dynstat_theta_max            =   1.2000000000000E+00
(PID.TID 0000.0001) %MON dynstat_theta_min            =  -1.0000000000000E+00
(PID.TID 0000.0001) %MON dynstat_theta_mean           =   5.6478554106861E-01
(PID.TID 0000.0001) %MON dynstat_theta_sd             =   8.4878504240573E-01
(PID.TID 0000.0001) %MON dynstat_theta_del2           =   5.8259332401970E-06
(PID.TID 0000.0001) %MON dynstat_salt_max             =   3.4700000000000E+01
(PID.TID 0000.0001) %MON dynstat_salt_min             =   3.4000000000000E+01
(PID.TID 0000.0001) %MON dynstat_salt_mean            =   3.4497828323913E+01
(PID.TID 0000.0001) %MON dynstat_salt_sd              =   2.7005450473907E-01
(PID.TID 0000.0001) %MON dynstat_salt_del2            =   2.3091053651654E-06
(PID.TID 0000.0001) %MON advcfl_uvel_max              =   6.5517244741564E-03
(PID.TID 0000.0001) %MON advcfl_vvel_max              =   3.6462501598162E-03
(PID.TID 0000.0001) %MON advcfl_wvel_max              =   1.5112242566327E-02
(PID.TID 0000.0001) %MON advcfl_W_hf_max              =   1.5112242566327E-02
(PID.TID 0000.0001) %MON pe_b_mean                    =  -6.8111011485553E-01
(PID.TID 0000.0001) %MON ke_max                       =   2.0026464982427E-03
(PID.TID 0000.0001) %MON ke_mean                      =   2.1147986225062E-06
(PID.TID 0000.0001) %MON ke_vol                       =   4.6183238418988E+12
(PID.TID 0000.0001) // =======================================================
(PID.TID 0000.0001) // End MONITOR dynamic field statistics
(PID.TID 0000.0001) // =======================================================
(PID.TID 0000.0001) // =======================================================
(PID.TID 0000.0001) // Begin OBCS MONITOR field statistics
(PID.TID 0000.0001) // =======================================================
(PID.TID 0000.0001) %MON obc_N_vVel_max               =   7.2199490178049E-08
(PID.TID 0000.0001) %MON obc_N_vVel_min               =   7.2199490178049E-08
(PID.TID 0000.0001) %MON obc_N_vVel_mean              =   7.2199490178049E-08
(PID.TID 0000.0001) %MON obc_N_vVel_sd                =  -1.4988357199199E-29
(PID.TID 0000.0001) %MON obc_N_vVel_Int               =   4.7651663517512E+00
(PID.TID 0000.0001) // =======================================================
(PID.TID 0000.0001) // End OBCS MONITOR field statistics
(PID.TID 0000.0001) // =======================================================
 cg2d: Sum(rhs),rhsMax =   3.00517300554657E+00  4.53037605714034E+02
(PID.TID 0000.0001)      cg2d_init_res =   6.40172419168225E-06
(PID.TID 0000.0001)      cg2d_iters(min,last) =      -1      79
(PID.TID 0000.0001)      cg2d_last_res =   9.08370912288912E-12
(PID.TID 0000.0001) // =======================================================
(PID.TID 0000.0001) // Begin MONITOR dynamic field statistics
(PID.TID 0000.0001) // =======================================================
(PID.TID 0000.0001) %MON time_tsnumber                =                  1515
(PID.TID 0000.0001) %MON time_secondsf                =   1.5150000000000E+05
(PID.TID 0000.0001) %MON dynstat_eta_max              =   5.7997282563707E+00
(PID.TID 0000.0001) %MON dynstat_eta_min              =  -1.4164419399167E+01
(PID.TID 0000.0001) %MON dynstat_eta_mean             =  -2.5212155244246E+00
(PID.TID 0000.0001) %MON dynstat_eta_sd               =   4.9402561204025E+00
(PID.TID 0000.0001) %MON dynstat_eta_del2             =   1.9059632919276E-01
(PID.TID 0000.0001) %MON dynstat_uvel_max             =   1.4517560394630E-02
(PID.TID 0000.0001) %MON dynstat_uvel_min             =  -6.5648039178662E-02
(PID.TID 0000.0001) %MON dynstat_uvel_mean            =   6.3659624540785E-09
(PID.TID 0000.0001) %MON dynstat_uvel_sd              =   1.9075234864568E-03
(PID.TID 0000.0001) %MON dynstat_uvel_del2            =   2.9927704869060E-06
(PID.TID 0000.0001) %MON dynstat_vvel_max             =   3.6505508387271E-02
(PID.TID 0000.0001) %MON dynstat_vvel_min             =  -2.0072873829871E-02
(PID.TID 0000.0001) %MON dynstat_vvel_mean            =   1.3298862701739E-07
(PID.TID 0000.0001) %MON dynstat_vvel_sd              =   8.2270523860842E-04
(PID.TID 0000.0001) %MON dynstat_vvel_del2            =   2.1174857228500E-06
(PID.TID 0000.0001) %MON dynstat_wvel_max             =   2.4300692936802E-03
(PID.TID 0000.0001) %MON dynstat_wvel_min             =  -3.0253061543764E-03
(PID.TID 0000.0001) %MON dynstat_wvel_mean            =   5.4702851362134E-10
(PID.TID 0000.0001) %MON dynstat_wvel_sd              =   4.1115952921345E-05
(PID.TID 0000.0001) %MON dynstat_wvel_del2            =   1.5311893050569E-07
(PID.TID 0000.0001) %MON dynstat_theta_max            =   1.2000000000000E+00
(PID.TID 0000.0001) %MON dynstat_theta_min            =  -1.0000000000000E+00
(PID.TID 0000.0001) %MON dynstat_theta_mean           =   5.6478424496623E-01
(PID.TID 0000.0001) %MON dynstat_theta_sd             =   8.4878447338314E-01
(PID.TID 0000.0001) %MON dynstat_theta_del2           =   5.8354749459148E-06
(PID.TID 0000.0001) %MON dynstat_salt_max             =   3.4700000000000E+01
(PID.TID 0000.0001) %MON dynstat_salt_min             =   3.4000000000000E+01
(PID.TID 0000.0001) %MON dynstat_salt_mean            =   3.4497827805578E+01
(PID.TID 0000.0001) %MON dynstat_salt_sd              =   2.7005429203156E-01
(PID.TID 0000.0001) %MON dynstat_salt_del2            =   2.3129006658769E-06
(PID.TID 0000.0001) %MON advcfl_uvel_max              =   6.5648039178662E-03
(PID.TID 0000.0001) %MON advcfl_vvel_max              =   3.6505508387271E-03
(PID.TID 0000.0001) %MON advcfl_wvel_max              =   1.5126530771882E-02
(PID.TID 0000.0001) %MON advcfl_W_hf_max              =   1.5126530771882E-02
(PID.TID 0000.0001) %MON pe_b_mean                    =  -6.8110661354053E-01
(PID.TID 0000.0001) %MON ke_max                       =   2.0111513754640E-03
(PID.TID 0000.0001) %MON ke_mean                      =   2.1235347397684E-06
(PID.TID 0000.0001) %MON ke_vol                       =   4.6183239107932E+12
(PID.TID 0000.0001) // =======================================================
(PID.TID 0000.0001) // End MONITOR dynamic field statistics
(PID.TID 0000.0001) // =======================================================
(PID.TID 0000.0001) // =======================================================
(PID.TID 0000.0001) // Begin OBCS MONITOR field statistics
(PID.TID 0000.0001) // =======================================================
(PID.TID 0000.0001) %MON obc_N_vVel_max               =   7.5096007390612E-08
(PID.TID 0000.0001) %MON obc_N_vVel_min               =   7.5096007390611E-08
(PID.TID 0000.0001) %MON obc_N_vVel_mean              =   7.5096007390611E-08
(PID.TID 0000.0001) %MON obc_N_vVel_sd                =  -5.9164567891576E-29
(PID.TID 0000.0001) %MON obc_N_vVel_Int               =   4.9563364877803E+00
(PID.TID 0000.0001) // =======================================================
(PID.TID 0000.0001) // End OBCS MONITOR field statistics
(PID.TID 0000.0001) // =======================================================
 cg2d: Sum(rhs),rhsMax =   3.00515929170843E+00  4.53037583146797E+02
(PID.TID 0000.0001)      cg2d_init_res =   6.41128378358842E-06
(PID.TID 0000.0001)      cg2d_iters(min,last) =      -1      79
(PID.TID 0000.0001)      cg2d_last_res =   9.10074819011918E-12
(PID.TID 0000.0001) // =======================================================
(PID.TID 0000.0001) // Begin MONITOR dynamic field statistics
(PID.TID 0000.0001) // =======================================================
(PID.TID 0000.0001) %MON time_tsnumber                =                  1516
(PID.TID 0000.0001) %MON time_secondsf                =   1.5160000000000E+05
(PID.TID 0000.0001) %MON dynstat_eta_max              =   5.7997316436976E+00
(PID.TID 0000.0001) %MON dynstat_eta_min              =  -1.4164392231031E+01
(PID.TID 0000.0001) %MON dynstat_eta_mean             =  -2.5212038934939E+00
(PID.TID 0000.0001) %MON dynstat_eta_sd               =   4.9402527713576E+00
(PID.TID 0000.0001) %MON dynstat_eta_del2             =   1.9059636423976E-01
(PID.TID 0000.0001) %MON dynstat_uvel_max             =   1.4547507591141E-02
(PID.TID 0000.0001) %MON dynstat_uvel_min             =  -6.5778919559499E-02
(PID.TID 0000.0001) %MON dynstat_uvel_mean            =   6.3739690324386E-09
(PID.TID 0000.0001) %MON dynstat_uvel_sd              =   1.9115292942625E-03
(PID.TID 0000.0001) %MON dynstat_uvel_del2            =   2.9994912690265E-06
(PID.TID 0000.0001) %MON dynstat_vvel_max             =   3.6548512286582E-02
(PID.TID 0000.0001) %MON dynstat_vvel_min             =  -2.0119768945404E-02
(PID.TID 0000.0001) %MON dynstat_vvel_mean            =   1.3646086669442E-07
(PID.TID 0000.0001) %MON dynstat_vvel_sd              =   8.2423699574692E-04
(PID.TID 0000.0001) %MON dynstat_vvel_del2            =   2.1209982557970E-06
(PID.TID 0000.0001) %MON dynstat_wvel_max             =   2.4336800627397E-03
(PID.TID 0000.0001) %MON dynstat_wvel_min             =  -3.0281405993008E-03
(PID.TID 0000.0001) %MON dynstat_wvel_mean            =   5.4865191480595E-10
(PID.TID 0000.0001) %MON dynstat_wvel_sd              =   4.1182168448547E-05
(PID.TID 0000.0001) %MON dynstat_wvel_del2            =   1.5330851730568E-07
(PID.TID 0000.0001) %MON dynstat_theta_max            =   1.2000000000000E+00
(PID.TID 0000.0001) %MON dynstat_theta_min            =  -1.0000000000000E+00
(PID.TID 0000.0001) %MON dynstat_theta_mean           =   5.6478294668896E-01
(PID.TID 0000.0001) %MON dynstat_theta_sd             =   8.4878390358115E-01
(PID.TID 0000.0001) %MON dynstat_theta_del2           =   5.8450260081470E-06
(PID.TID 0000.0001) %MON dynstat_salt_max             =   3.4700000000000E+01
(PID.TID 0000.0001) %MON dynstat_salt_min             =   3.4000000000000E+01
(PID.TID 0000.0001) %MON dynstat_salt_mean            =   3.4497827286372E+01
(PID.TID 0000.0001) %MON dynstat_salt_sd              =   2.7005407905031E-01
(PID.TID 0000.0001) %MON dynstat_salt_del2            =   2.3166997666972E-06
(PID.TID 0000.0001) %MON advcfl_uvel_max              =   6.5778919559499E-03
(PID.TID 0000.0001) %MON advcfl_vvel_max              =   3.6548512286582E-03
(PID.TID 0000.0001) %MON advcfl_wvel_max              =   1.5140702996504E-02
(PID.TID 0000.0001) %MON advcfl_W_hf_max              =   1.5140702996504E-02
(PID.TID 0000.0001) %MON pe_b_mean                    =  -6.8110310703577E-01
(PID.TID 0000.0001) %MON ke_max                       =   2.0196819933600E-03
(PID.TID 0000.0001) %MON ke_mean                      =   2.1323014658099E-06
(PID.TID 0000.0001) %MON ke_vol                       =   4.6183239797849E+12
(PID.TID 0000.0001) // =======================================================
(PID.TID 0000.0001) // End MONITOR dynamic field statistics
(PID.TID 0000.0001) // =======================================================
(PID.TID 0000.0001) // =======================================================
(PID.TID 0000.0001) // Begin OBCS MONITOR field statistics
(PID.TID 0000.0001) // =======================================================
(PID.TID 0000.0001) %MON obc_N_vVel_max               =   7.8205049083779E-08
(PID.TID 0000.0001) %MON obc_N_vVel_min               =   7.8205049083779E-08
(PID.TID 0000.0001) %MON obc_N_vVel_mean              =   7.8205049083779E-08
(PID.TID 0000.0001) %MON obc_N_vVel_sd                =   6.8798004559188E-15
(PID.TID 0000.0001) %MON obc_N_vVel_Int               =   5.1615332395294E+00
(PID.TID 0000.0001) // =======================================================
(PID.TID 0000.0001) // End OBCS MONITOR field statistics
(PID.TID 0000.0001) // =======================================================
 cg2d: Sum(rhs),rhsMax =   3.00514555859398E+00  4.53037560606676E+02
(PID.TID 0000.0001)      cg2d_init_res =   6.42085372455045E-06
(PID.TID 0000.0001)      cg2d_iters(min,last) =      -1      79
(PID.TID 0000.0001)      cg2d_last_res =   9.11779166947755E-12
(PID.TID 0000.0001) // =======================================================
(PID.TID 0000.0001) // Begin MONITOR dynamic field statistics
(PID.TID 0000.0001) // =======================================================
(PID.TID 0000.0001) %MON time_tsnumber                =                  1517
(PID.TID 0000.0001) %MON time_secondsf                =   1.5170000000000E+05
(PID.TID 0000.0001) %MON dynstat_eta_max              =   5.7997350268258E+00
(PID.TID 0000.0001) %MON dynstat_eta_min              =  -1.4164365009952E+01
(PID.TID 0000.0001) %MON dynstat_eta_mean             =  -2.5211922465433E+00
(PID.TID 0000.0001) %MON dynstat_eta_sd               =   4.9402494177706E+00
(PID.TID 0000.0001) %MON dynstat_eta_del2             =   1.9059639934176E-01
(PID.TID 0000.0001) %MON dynstat_uvel_max             =   1.4577482509793E-02
(PID.TID 0000.0001) %MON dynstat_uvel_min             =  -6.5909885891362E-02
(PID.TID 0000.0001) %MON dynstat_uvel_mean            =   6.3849239141941E-09
(PID.TID 0000.0001) %MON dynstat_uvel_sd              =   1.9155408857119E-03
(PID.TID 0000.0001) %MON dynstat_uvel_del2            =   3.0062246555728E-06
(PID.TID 0000.0001) %MON dynstat_vvel_max             =   3.6591513173530E-02
(PID.TID 0000.0001) %MON dynstat_vvel_min             =  -2.0166687822167E-02
(PID.TID 0000.0001) %MON dynstat_vvel_mean            =   1.4004694162656E-07
(PID.TID 0000.0001) %MON dynstat_vvel_sd              =   8.2577082259955E-04
(PID.TID 0000.0001) %MON dynstat_vvel_del2            =   2.1245141058408E-06
(PID.TID 0000.0001) %MON dynstat_wvel_max             =   2.4372906674166E-03
(PID.TID 0000.0001) %MON dynstat_wvel_min             =  -3.0309517517922E-03
(PID.TID 0000.0001) %MON dynstat_wvel_mean            =   5.4977767416492E-10
(PID.TID 0000.0001) %MON dynstat_wvel_sd              =   4.1248072395536E-05
(PID.TID 0000.0001) %MON dynstat_wvel_del2            =   1.5349725275356E-07
(PID.TID 0000.0001) %MON dynstat_theta_max            =   1.2000000000000E+00
(PID.TID 0000.0001) %MON dynstat_theta_min            =  -1.0000000000000E+00
(PID.TID 0000.0001) %MON dynstat_theta_mean           =   5.6478164623405E-01
(PID.TID 0000.0001) %MON dynstat_theta_sd             =   8.4878333300209E-01
(PID.TID 0000.0001) %MON dynstat_theta_del2           =   5.8545865587836E-06
(PID.TID 0000.0001) %MON dynstat_salt_max             =   3.4700000000000E+01
(PID.TID 0000.0001) %MON dynstat_salt_min             =   3.4000000000000E+01
(PID.TID 0000.0001) %MON dynstat_salt_mean            =   3.4497826766295E+01
(PID.TID 0000.0001) %MON dynstat_salt_sd              =   2.7005386579597E-01
(PID.TID 0000.0001) %MON dynstat_salt_del2            =   2.3205025460431E-06
(PID.TID 0000.0001) %MON advcfl_uvel_max              =   6.5909885891362E-03
(PID.TID 0000.0001) %MON advcfl_vvel_max              =   3.6591513173530E-03
(PID.TID 0000.0001) %MON advcfl_wvel_max              =   1.5154758758961E-02
(PID.TID 0000.0001) %MON advcfl_W_hf_max              =   1.5154758758961E-02
(PID.TID 0000.0001) %MON pe_b_mean                    =  -6.8109959535531E-01
(PID.TID 0000.0001) %MON ke_max                       =   2.0282383426575E-03
(PID.TID 0000.0001) %MON ke_mean                      =   2.1410988625321E-06
(PID.TID 0000.0001) %MON ke_vol                       =   4.6183240488726E+12
(PID.TID 0000.0001) // =======================================================
(PID.TID 0000.0001) // End MONITOR dynamic field statistics
(PID.TID 0000.0001) // =======================================================
(PID.TID 0000.0001) // =======================================================
(PID.TID 0000.0001) // Begin OBCS MONITOR field statistics
(PID.TID 0000.0001) // =======================================================
(PID.TID 0000.0001) %MON obc_N_vVel_max               =   8.1464978481159E-08
(PID.TID 0000.0001) %MON obc_N_vVel_min               =   8.1464978481156E-08
(PID.TID 0000.0001) %MON obc_N_vVel_mean              =   8.1464978481159E-08
(PID.TID 0000.0001) %MON obc_N_vVel_sd                =  -5.9953428796797E-28
(PID.TID 0000.0001) %MON obc_N_vVel_Int               =   5.3766885797565E+00
(PID.TID 0000.0001) // =======================================================
(PID.TID 0000.0001) // End OBCS MONITOR field statistics
(PID.TID 0000.0001) // =======================================================
 cg2d: Sum(rhs),rhsMax =   3.00513180631671E+00  4.53037538090192E+02
(PID.TID 0000.0001)      cg2d_init_res =   6.43041821890776E-06
(PID.TID 0000.0001)      cg2d_iters(min,last) =      -1      79
(PID.TID 0000.0001)      cg2d_last_res =   9.13480637644359E-12
(PID.TID 0000.0001) // =======================================================
(PID.TID 0000.0001) // Begin MONITOR dynamic field statistics
(PID.TID 0000.0001) // =======================================================
(PID.TID 0000.0001) %MON time_tsnumber                =                  1518
(PID.TID 0000.0001) %MON time_secondsf                =   1.5180000000000E+05
(PID.TID 0000.0001) %MON dynstat_eta_max              =   5.7997384057239E+00
(PID.TID 0000.0001) %MON dynstat_eta_min              =  -1.4164337735883E+01
(PID.TID 0000.0001) %MON dynstat_eta_mean             =  -2.5211805836486E+00
(PID.TID 0000.0001) %MON dynstat_eta_sd               =   4.9402460596021E+00
(PID.TID 0000.0001) %MON dynstat_eta_del2             =   1.9059643449829E-01
(PID.TID 0000.0001) %MON dynstat_uvel_max             =   1.4607485058087E-02
(PID.TID 0000.0001) %MON dynstat_uvel_min             =  -6.6040938184230E-02
(PID.TID 0000.0001) %MON dynstat_uvel_mean            =   6.3989178838762E-09
(PID.TID 0000.0001) %MON dynstat_uvel_sd              =   1.9195582571568E-03
(PID.TID 0000.0001) %MON dynstat_uvel_del2            =   3.0129706574896E-06
(PID.TID 0000.0001) %MON dynstat_vvel_max             =   3.6634510924428E-02
(PID.TID 0000.0001) %MON dynstat_vvel_min             =  -2.0213629446024E-02
(PID.TID 0000.0001) %MON dynstat_vvel_mean            =   1.4367787065641E-07
(PID.TID 0000.0001) %MON dynstat_vvel_sd              =   8.2730671278875E-04
(PID.TID 0000.0001) %MON dynstat_vvel_del2            =   2.1280332289943E-06
(PID.TID 0000.0001) %MON dynstat_wvel_max             =   2.4409010867885E-03
(PID.TID 0000.0001) %MON dynstat_wvel_min             =  -3.0337395166372E-03
(PID.TID 0000.0001) %MON dynstat_wvel_mean            =   5.5040302259249E-10
(PID.TID 0000.0001) %MON dynstat_wvel_sd              =   4.1313630379187E-05
(PID.TID 0000.0001) %MON dynstat_wvel_del2            =   1.5368492112033E-07
(PID.TID 0000.0001) %MON dynstat_theta_max            =   1.2000000000000E+00
(PID.TID 0000.0001) %MON dynstat_theta_min            =  -1.0000000000000E+00
(PID.TID 0000.0001) %MON dynstat_theta_mean           =   5.6478034359881E-01
(PID.TID 0000.0001) %MON dynstat_theta_sd             =   8.4878276164690E-01
(PID.TID 0000.0001) %MON dynstat_theta_del2           =   5.8641567502898E-06
(PID.TID 0000.0001) %MON dynstat_salt_max             =   3.4700000000000E+01
(PID.TID 0000.0001) %MON dynstat_salt_min             =   3.4000000000000E+01
(PID.TID 0000.0001) %MON dynstat_salt_mean            =   3.4497826245345E+01
(PID.TID 0000.0001) %MON dynstat_salt_sd              =   2.7005365226929E-01
(PID.TID 0000.0001) %MON dynstat_salt_del2            =   2.3243090715578E-06
(PID.TID 0000.0001) %MON advcfl_uvel_max              =   6.6040938184230E-03
(PID.TID 0000.0001) %MON advcfl_vvel_max              =   3.6634510924428E-03
(PID.TID 0000.0001) %MON advcfl_wvel_max              =   1.5168697583186E-02
(PID.TID 0000.0001) %MON advcfl_W_hf_max              =   1.5168697583186E-02
(PID.TID 0000.0001) %MON pe_b_mean                    =  -6.8109607849848E-01
(PID.TID 0000.0001) %MON ke_max                       =   2.0368204132032E-03
(PID.TID 0000.0001) %MON ke_mean                      =   2.1499269955991E-06
(PID.TID 0000.0001) %MON ke_vol                       =   4.6183241180555E+12
(PID.TID 0000.0001) // =======================================================
(PID.TID 0000.0001) // End MONITOR dynamic field statistics
(PID.TID 0000.0001) // =======================================================
(PID.TID 0000.0001) // =======================================================
(PID.TID 0000.0001) // Begin OBCS MONITOR field statistics
(PID.TID 0000.0001) // =======================================================
(PID.TID 0000.0001) %MON obc_N_vVel_max               =   8.4811513321747E-08
(PID.TID 0000.0001) %MON obc_N_vVel_min               =   8.4811513321744E-08
(PID.TID 0000.0001) %MON obc_N_vVel_mean              =   8.4811513321744E-08
(PID.TID 0000.0001) %MON obc_N_vVel_sd                =   1.4043333874307E-14
(PID.TID 0000.0001) %MON obc_N_vVel_Int               =   5.5975598792351E+00
(PID.TID 0000.0001) // =======================================================
(PID.TID 0000.0001) // End OBCS MONITOR field statistics
(PID.TID 0000.0001) // =======================================================
 cg2d: Sum(rhs),rhsMax =   3.00511803491087E+00  4.53037515592859E+02
(PID.TID 0000.0001)      cg2d_init_res =   6.43999823264775E-06
(PID.TID 0000.0001)      cg2d_iters(min,last) =      -1      79
(PID.TID 0000.0001)      cg2d_last_res =   9.15184273259837E-12
(PID.TID 0000.0001) // =======================================================
(PID.TID 0000.0001) // Begin MONITOR dynamic field statistics
(PID.TID 0000.0001) // =======================================================
(PID.TID 0000.0001) %MON time_tsnumber                =                  1519
(PID.TID 0000.0001) %MON time_secondsf                =   1.5190000000000E+05
(PID.TID 0000.0001) %MON dynstat_eta_max              =   5.7997417804842E+00
(PID.TID 0000.0001) %MON dynstat_eta_min              =  -1.4164310408659E+01
(PID.TID 0000.0001) %MON dynstat_eta_mean             =  -2.5211689048135E+00
(PID.TID 0000.0001) %MON dynstat_eta_sd               =   4.9402426967934E+00
(PID.TID 0000.0001) %MON dynstat_eta_del2             =   1.9059646970922E-01
(PID.TID 0000.0001) %MON dynstat_uvel_max             =   1.4637515142786E-02
(PID.TID 0000.0001) %MON dynstat_uvel_min             =  -6.6172076450744E-02
(PID.TID 0000.0001) %MON dynstat_uvel_mean            =   6.4159824670156E-09
(PID.TID 0000.0001) %MON dynstat_uvel_sd              =   1.9235814049087E-03
(PID.TID 0000.0001) %MON dynstat_uvel_del2            =   3.0197292859151E-06
(PID.TID 0000.0001) %MON dynstat_vvel_max             =   3.6677505414907E-02
(PID.TID 0000.0001) %MON dynstat_vvel_min             =  -2.0260592793848E-02
(PID.TID 0000.0001) %MON dynstat_vvel_mean            =   1.4728441081167E-07
(PID.TID 0000.0001) %MON dynstat_vvel_sd              =   8.2884466503201E-04
(PID.TID 0000.0001) %MON dynstat_vvel_del2            =   2.1315556014823E-06
(PID.TID 0000.0001) %MON dynstat_wvel_max             =   2.4445112999061E-03
(PID.TID 0000.0001) %MON dynstat_wvel_min             =  -3.0365037997948E-03
(PID.TID 0000.0001) %MON dynstat_wvel_mean            =   5.5053540082913E-10
(PID.TID 0000.0001) %MON dynstat_wvel_sd              =   4.1378824026237E-05
(PID.TID 0000.0001) %MON dynstat_wvel_del2            =   1.5387136901294E-07
(PID.TID 0000.0001) %MON dynstat_theta_max            =   1.2000000000000E+00
(PID.TID 0000.0001) %MON dynstat_theta_min            =  -1.0000000000000E+00
(PID.TID 0000.0001) %MON dynstat_theta_mean           =   5.6477903878059E-01
(PID.TID 0000.0001) %MON dynstat_theta_sd             =   8.4878218951766E-01
(PID.TID 0000.0001) %MON dynstat_theta_del2           =   5.8737366912649E-06
(PID.TID 0000.0001) %MON dynstat_salt_max             =   3.4700000000000E+01
(PID.TID 0000.0001) %MON dynstat_salt_min             =   3.4000000000000E+01
(PID.TID 0000.0001) %MON dynstat_salt_mean            =   3.4497825723522E+01
(PID.TID 0000.0001) %MON dynstat_salt_sd              =   2.7005343847085E-01
(PID.TID 0000.0001) %MON dynstat_salt_del2            =   2.3281195047177E-06
(PID.TID 0000.0001) %MON advcfl_uvel_max              =   6.6172076450744E-03
(PID.TID 0000.0001) %MON advcfl_vvel_max              =   3.6677505414907E-03
(PID.TID 0000.0001) %MON advcfl_wvel_max              =   1.5182518998974E-02
(PID.TID 0000.0001) %MON advcfl_W_hf_max              =   1.5182518998974E-02
(PID.TID 0000.0001) %MON pe_b_mean                    =  -6.8109255645003E-01
(PID.TID 0000.0001) %MON ke_max                       =   2.0454281939678E-03
(PID.TID 0000.0001) %MON ke_mean                      =   2.1587859348352E-06
(PID.TID 0000.0001) %MON ke_vol                       =   4.6183241873331E+12
(PID.TID 0000.0001) // =======================================================
(PID.TID 0000.0001) // End MONITOR dynamic field statistics
(PID.TID 0000.0001) // =======================================================
(PID.TID 0000.0001) // =======================================================
(PID.TID 0000.0001) // Begin OBCS MONITOR field statistics
(PID.TID 0000.0001) // =======================================================
(PID.TID 0000.0001) %MON obc_N_vVel_max               =   8.8179172282404E-08
(PID.TID 0000.0001) %MON obc_N_vVel_min               =   8.8179172282402E-08
(PID.TID 0000.0001) %MON obc_N_vVel_mean              =   8.8179172282404E-08
(PID.TID 0000.0001) %MON obc_N_vVel_sd                =  -3.7392006907476E-28
(PID.TID 0000.0001) %MON obc_N_vVel_Int               =   5.8198253706387E+00
(PID.TID 0000.0001) // =======================================================
(PID.TID 0000.0001) // End OBCS MONITOR field statistics
(PID.TID 0000.0001) // =======================================================
 cg2d: Sum(rhs),rhsMax =   3.00510424432996E+00  4.53037493109352E+02
(PID.TID 0000.0001)      cg2d_init_res =   6.44960460084677E-06
(PID.TID 0000.0001)      cg2d_iters(min,last) =      -1      79
(PID.TID 0000.0001)      cg2d_last_res =   9.16894887615793E-12
(PID.TID 0000.0001) // =======================================================
(PID.TID 0000.0001) // Begin MONITOR dynamic field statistics
(PID.TID 0000.0001) // =======================================================
(PID.TID 0000.0001) %MON time_tsnumber                =                  1520
(PID.TID 0000.0001) %MON time_secondsf                =   1.5200000000000E+05
(PID.TID 0000.0001) %MON dynstat_eta_max              =   5.7997451513333E+00
(PID.TID 0000.0001) %MON dynstat_eta_min              =  -1.4164283027959E+01
(PID.TID 0000.0001) %MON dynstat_eta_mean             =  -2.5211572099695E+00
(PID.TID 0000.0001) %MON dynstat_eta_sd               =   4.9402393292657E+00
(PID.TID 0000.0001) %MON dynstat_eta_del2             =   1.9059650497461E-01
(PID.TID 0000.0001) %MON dynstat_uvel_max             =   1.4667572670011E-02
(PID.TID 0000.0001) %MON dynstat_uvel_min             =  -6.6303300706107E-02
(PID.TID 0000.0001) %MON dynstat_uvel_mean            =   6.4360932497218E-09
(PID.TID 0000.0001) %MON dynstat_uvel_sd              =   1.9276103252331E-03
(PID.TID 0000.0001) %MON dynstat_uvel_del2            =   3.0265005525390E-06
(PID.TID 0000.0001) %MON dynstat_vvel_max             =   3.6720496519914E-02
(PID.TID 0000.0001) %MON dynstat_vvel_min             =  -2.0307576833156E-02
(PID.TID 0000.0001) %MON dynstat_vvel_mean            =   1.5079856587407E-07
(PID.TID 0000.0001) %MON dynstat_vvel_sd              =   8.3038468330791E-04
(PID.TID 0000.0001) %MON dynstat_vvel_del2            =   2.1350812211983E-06
(PID.TID 0000.0001) %MON dynstat_wvel_max             =   2.4481212857452E-03
(PID.TID 0000.0001) %MON dynstat_wvel_min             =  -3.0392445083640E-03
(PID.TID 0000.0001) %MON dynstat_wvel_mean            =   5.5019293022343E-10
(PID.TID 0000.0001) %MON dynstat_wvel_sd              =   4.1443652279131E-05
(PID.TID 0000.0001) %MON dynstat_wvel_del2            =   1.5405651661642E-07
(PID.TID 0000.0001) %MON dynstat_theta_max            =   1.2000000000000E+00
(PID.TID 0000.0001) %MON dynstat_theta_min            =  -1.0000000000000E+00
(PID.TID 0000.0001) %MON dynstat_theta_mean           =   5.6477773177679E-01
(PID.TID 0000.0001) %MON dynstat_theta_sd             =   8.4878161661980E-01
(PID.TID 0000.0001) %MON dynstat_theta_del2           =   5.8833327033553E-06
(PID.TID 0000.0001) %MON dynstat_salt_max             =   3.4700000000000E+01
(PID.TID 0000.0001) %MON dynstat_salt_min             =   3.4000000000000E+01
(PID.TID 0000.0001) %MON dynstat_salt_mean            =   3.4497825200824E+01
(PID.TID 0000.0001) %MON dynstat_salt_sd              =   2.7005322440111E-01
(PID.TID 0000.0001) %MON dynstat_salt_del2            =   2.3319338674763E-06
(PID.TID 0000.0001) %MON advcfl_uvel_max              =   6.6303300706107E-03
(PID.TID 0000.0001) %MON advcfl_vvel_max              =   3.6720496519914E-03
(PID.TID 0000.0001) %MON advcfl_wvel_max              =   1.5196222541820E-02
(PID.TID 0000.0001) %MON advcfl_W_hf_max              =   1.5196222541820E-02
(PID.TID 0000.0001) %MON pe_b_mean                    =  -6.8108902918034E-01
(PID.TID 0000.0001) %MON ke_max                       =   2.0540616730303E-03
(PID.TID 0000.0001) %MON ke_mean                      =   2.1676757543901E-06
(PID.TID 0000.0001) %MON ke_vol                       =   4.6183242567054E+12
(PID.TID 0000.0001) // =======================================================
(PID.TID 0000.0001) // End MONITOR dynamic field statistics
(PID.TID 0000.0001) // =======================================================
(PID.TID 0000.0001) // =======================================================
(PID.TID 0000.0001) // Begin OBCS MONITOR field statistics
(PID.TID 0000.0001) // =======================================================
(PID.TID 0000.0001) %MON obc_N_vVel_max               =   9.1502685877446E-08
(PID.TID 0000.0001) %MON obc_N_vVel_min               =   9.1502685877443E-08
(PID.TID 0000.0001) %MON obc_N_vVel_mean              =   9.1502685877446E-08
(PID.TID 0000.0001) %MON obc_N_vVel_sd                =  -4.3702894149244E-28
(PID.TID 0000.0001) %MON obc_N_vVel_Int               =   6.0391772679115E+00
(PID.TID 0000.0001) // =======================================================
(PID.TID 0000.0001) // End OBCS MONITOR field statistics
(PID.TID 0000.0001) // =======================================================
 cg2d: Sum(rhs),rhsMax =   3.00509043444784E+00  4.53037470633655E+02
(PID.TID 0000.0001)      cg2d_init_res =   6.45915581388255E-06
(PID.TID 0000.0001)      cg2d_iters(min,last) =      -1      79
(PID.TID 0000.0001)      cg2d_last_res =   9.18587678682132E-12
(PID.TID 0000.0001) // =======================================================
(PID.TID 0000.0001) // Begin MONITOR dynamic field statistics
(PID.TID 0000.0001) // =======================================================
(PID.TID 0000.0001) %MON time_tsnumber                =                  1521
(PID.TID 0000.0001) %MON time_secondsf                =   1.5210000000000E+05
(PID.TID 0000.0001) %MON dynstat_eta_max              =   5.7997485186039E+00
(PID.TID 0000.0001) %MON dynstat_eta_min              =  -1.4164255593337E+01
(PID.TID 0000.0001) %MON dynstat_eta_mean             =  -2.5211454989771E+00
(PID.TID 0000.0001) %MON dynstat_eta_sd               =   4.9402359569007E+00
(PID.TID 0000.0001) %MON dynstat_eta_del2             =   1.9059654029385E-01
(PID.TID 0000.0001) %MON dynstat_uvel_max             =   1.4697657546998E-02
(PID.TID 0000.0001) %MON dynstat_uvel_min             =  -6.6434610953863E-02
(PID.TID 0000.0001) %MON dynstat_uvel_mean            =   6.4590761605708E-09
(PID.TID 0000.0001) %MON dynstat_uvel_sd              =   1.9316450146205E-03
(PID.TID 0000.0001) %MON dynstat_uvel_del2            =   3.0332844530025E-06
(PID.TID 0000.0001) %MON dynstat_vvel_max             =   3.6763484113732E-02
(PID.TID 0000.0001) %MON dynstat_vvel_min             =  -2.0354580521047E-02
(PID.TID 0000.0001) %MON dynstat_vvel_mean            =   1.5415511163697E-07
(PID.TID 0000.0001) %MON dynstat_vvel_sd              =   8.3192677609543E-04
(PID.TID 0000.0001) %MON dynstat_vvel_del2            =   2.1386101047493E-06
(PID.TID 0000.0001) %MON dynstat_wvel_max             =   2.4517310231360E-03
(PID.TID 0000.0001) %MON dynstat_wvel_min             =  -3.0419615507963E-03
(PID.TID 0000.0001) %MON dynstat_wvel_mean            =   5.4940703013112E-10
(PID.TID 0000.0001) %MON dynstat_wvel_sd              =   4.1508131830738E-05
(PID.TID 0000.0001) %MON dynstat_wvel_del2            =   1.5424036584759E-07
(PID.TID 0000.0001) %MON dynstat_theta_max            =   1.2000000000000E+00
(PID.TID 0000.0001) %MON dynstat_theta_min            =  -1.0000000000000E+00
(PID.TID 0000.0001) %MON dynstat_theta_mean           =   5.6477642258486E-01
(PID.TID 0000.0001) %MON dynstat_theta_sd             =   8.4878104295005E-01
(PID.TID 0000.0001) %MON dynstat_theta_del2           =   5.8929386517538E-06
(PID.TID 0000.0001) %MON dynstat_salt_max             =   3.4700000000000E+01
(PID.TID 0000.0001) %MON dynstat_salt_min             =   3.4000000000000E+01
(PID.TID 0000.0001) %MON dynstat_salt_mean            =   3.4497824677250E+01
(PID.TID 0000.0001) %MON dynstat_salt_sd              =   2.7005301006050E-01
(PID.TID 0000.0001) %MON dynstat_salt_del2            =   2.3357521752835E-06
(PID.TID 0000.0001) %MON advcfl_uvel_max              =   6.6434610953863E-03
(PID.TID 0000.0001) %MON advcfl_vvel_max              =   3.6763484113732E-03
(PID.TID 0000.0001) %MON advcfl_wvel_max              =   1.5209807753981E-02
(PID.TID 0000.0001) %MON advcfl_W_hf_max              =   1.5209807753981E-02
(PID.TID 0000.0001) %MON pe_b_mean                    =  -6.8108549664608E-01
(PID.TID 0000.0001) %MON ke_max                       =   2.0627208347094E-03
(PID.TID 0000.0001) %MON ke_mean                      =   2.1765965326599E-06
(PID.TID 0000.0001) %MON ke_vol                       =   4.6183243261728E+12
(PID.TID 0000.0001) // =======================================================
(PID.TID 0000.0001) // End MONITOR dynamic field statistics
(PID.TID 0000.0001) // =======================================================
(PID.TID 0000.0001) // =======================================================
(PID.TID 0000.0001) // Begin OBCS MONITOR field statistics
(PID.TID 0000.0001) // =======================================================
(PID.TID 0000.0001) %MON obc_N_vVel_max               =   9.4718421650727E-08
(PID.TID 0000.0001) %MON obc_N_vVel_min               =   9.4718421650725E-08
(PID.TID 0000.0001) %MON obc_N_vVel_mean              =   9.4718421650725E-08
(PID.TID 0000.0001) %MON obc_N_vVel_sd                =   2.2044008655781E-14
(PID.TID 0000.0001) %MON obc_N_vVel_Int               =   6.2514158289478E+00
(PID.TID 0000.0001) // =======================================================
(PID.TID 0000.0001) // End OBCS MONITOR field statistics
(PID.TID 0000.0001) // =======================================================
 cg2d: Sum(rhs),rhsMax =   3.00507660505861E+00  4.53037448159696E+02
(PID.TID 0000.0001)      cg2d_init_res =   6.46879241311585E-06
(PID.TID 0000.0001)      cg2d_iters(min,last) =      -1      79
(PID.TID 0000.0001)      cg2d_last_res =   9.20308650418715E-12
(PID.TID 0000.0001) // =======================================================
(PID.TID 0000.0001) // Begin MONITOR dynamic field statistics
(PID.TID 0000.0001) // =======================================================
(PID.TID 0000.0001) %MON time_tsnumber                =                  1522
(PID.TID 0000.0001) %MON time_secondsf                =   1.5220000000000E+05
(PID.TID 0000.0001) %MON dynstat_eta_max              =   5.7997518827477E+00
(PID.TID 0000.0001) %MON dynstat_eta_min              =  -1.4164228104220E+01
(PID.TID 0000.0001) %MON dynstat_eta_mean             =  -2.5211337716299E+00
(PID.TID 0000.0001) %MON dynstat_eta_sd               =   4.9402325795930E+00
(PID.TID 0000.0001) %MON dynstat_eta_del2             =   1.9059657566702E-01
(PID.TID 0000.0001) %MON dynstat_uvel_max             =   1.4727769681500E-02
(PID.TID 0000.0001) %MON dynstat_uvel_min             =  -6.6566007203992E-02
(PID.TID 0000.0001) %MON dynstat_uvel_mean            =   6.4848657001616E-09
(PID.TID 0000.0001) %MON dynstat_uvel_sd              =   1.9356854692572E-03
(PID.TID 0000.0001) %MON dynstat_uvel_del2            =   3.0400809990435E-06
(PID.TID 0000.0001) %MON dynstat_vvel_max             =   3.6806468070288E-02
(PID.TID 0000.0001) %MON dynstat_vvel_min             =  -2.0401602813767E-02
(PID.TID 0000.0001) %MON dynstat_vvel_mean            =   1.5729287662639E-07
(PID.TID 0000.0001) %MON dynstat_vvel_sd              =   8.3347095764082E-04
(PID.TID 0000.0001) %MON dynstat_vvel_del2            =   2.1421422950704E-06
(PID.TID 0000.0001) %MON dynstat_wvel_max             =   2.4553404908255E-03
(PID.TID 0000.0001) %MON dynstat_wvel_min             =  -3.0446548363226E-03
(PID.TID 0000.0001) %MON dynstat_wvel_mean            =   5.4821194427210E-10
(PID.TID 0000.0001) %MON dynstat_wvel_sd              =   4.1572296272358E-05
(PID.TID 0000.0001) %MON dynstat_wvel_del2            =   1.5442299487479E-07
(PID.TID 0000.0001) %MON dynstat_theta_max            =   1.2000000000000E+00
(PID.TID 0000.0001) %MON dynstat_theta_min            =  -1.0000000000000E+00
(PID.TID 0000.0001) %MON dynstat_theta_mean           =   5.6477511120224E-01
(PID.TID 0000.0001) %MON dynstat_theta_sd             =   8.4878046850920E-01
(PID.TID 0000.0001) %MON dynstat_theta_del2           =   5.9025545895227E-06
(PID.TID 0000.0001) %MON dynstat_salt_max             =   3.4700000000000E+01
(PID.TID 0000.0001) %MON dynstat_salt_min             =   3.4000000000000E+01
(PID.TID 0000.0001) %MON dynstat_salt_mean            =   3.4497824152800E+01
(PID.TID 0000.0001) %MON dynstat_salt_sd              =   2.7005279544954E-01
(PID.TID 0000.0001) %MON dynstat_salt_del2            =   2.3395744371604E-06
(PID.TID 0000.0001) %MON advcfl_uvel_max              =   6.6566007203992E-03
(PID.TID 0000.0001) %MON advcfl_vvel_max              =   3.6806468070288E-03
(PID.TID 0000.0001) %MON advcfl_wvel_max              =   1.5223274181613E-02
(PID.TID 0000.0001) %MON advcfl_W_hf_max              =   1.5223274181613E-02
(PID.TID 0000.0001) %MON pe_b_mean                    =  -6.8108195879115E-01
(PID.TID 0000.0001) %MON ke_max                       =   2.0714056668815E-03
(PID.TID 0000.0001) %MON ke_mean                      =   2.1855483523770E-06
(PID.TID 0000.0001) %MON ke_vol                       =   4.6183243957361E+12
(PID.TID 0000.0001) // =======================================================
(PID.TID 0000.0001) // End MONITOR dynamic field statistics
(PID.TID 0000.0001) // =======================================================
(PID.TID 0000.0001) // =======================================================
(PID.TID 0000.0001) // Begin OBCS MONITOR field statistics
(PID.TID 0000.0001) // =======================================================
(PID.TID 0000.0001) %MON obc_N_vVel_max               =   9.7765759777006E-08
(PID.TID 0000.0001) %MON obc_N_vVel_min               =   9.7765759777004E-08
(PID.TID 0000.0001) %MON obc_N_vVel_mean              =   9.7765759777004E-08
(PID.TID 0000.0001) %MON obc_N_vVel_sd                =   2.1316282072803E-14
(PID.TID 0000.0001) %MON obc_N_vVel_Int               =   6.4525401452822E+00
(PID.TID 0000.0001) // =======================================================
(PID.TID 0000.0001) // End OBCS MONITOR field statistics
(PID.TID 0000.0001) // =======================================================
 cg2d: Sum(rhs),rhsMax =   3.00506275588995E+00  4.53037425680153E+02
(PID.TID 0000.0001)      cg2d_init_res =   6.47844523104339E-06
(PID.TID 0000.0001)      cg2d_iters(min,last) =      -1      79
(PID.TID 0000.0001)      cg2d_last_res =   9.22035912283286E-12
(PID.TID 0000.0001) // =======================================================
(PID.TID 0000.0001) // Begin MONITOR dynamic field statistics
(PID.TID 0000.0001) // =======================================================
(PID.TID 0000.0001) %MON time_tsnumber                =                  1523
(PID.TID 0000.0001) %MON time_secondsf                =   1.5230000000000E+05
(PID.TID 0000.0001) %MON dynstat_eta_max              =   5.7997552443035E+00
(PID.TID 0000.0001) %MON dynstat_eta_min              =  -1.4164200559915E+01
(PID.TID 0000.0001) %MON dynstat_eta_mean             =  -2.5211220276587E+00
(PID.TID 0000.0001) %MON dynstat_eta_sd               =   4.9402291972060E+00
(PID.TID 0000.0001) %MON dynstat_eta_del2             =   1.9059661109386E-01
(PID.TID 0000.0001) %MON dynstat_uvel_max             =   1.4757908980173E-02
(PID.TID 0000.0001) %MON dynstat_uvel_min             =  -6.6697489477004E-02
(PID.TID 0000.0001) %MON dynstat_uvel_mean            =   6.5132731585912E-09
(PID.TID 0000.0001) %MON dynstat_uvel_sd              =   1.9397316852927E-03
(PID.TID 0000.0001) %MON dynstat_uvel_del2            =   3.0468902017664E-06
(PID.TID 0000.0001) %MON dynstat_vvel_max             =   3.6849448263580E-02
(PID.TID 0000.0001) %MON dynstat_vvel_min             =  -2.0448642751393E-02
(PID.TID 0000.0001) %MON dynstat_vvel_mean            =   1.6015612055031E-07
(PID.TID 0000.0001) %MON dynstat_vvel_sd              =   8.3501724654630E-04
(PID.TID 0000.0001) %MON dynstat_vvel_del2            =   2.1456778550502E-06
(PID.TID 0000.0001) %MON dynstat_wvel_max             =   2.4589496675117E-03
(PID.TID 0000.0001) %MON dynstat_wvel_min             =  -3.0473242571735E-03
(PID.TID 0000.0001) %MON dynstat_wvel_mean            =   5.4665504356198E-10
(PID.TID 0000.0001) %MON dynstat_wvel_sd              =   4.1636194609634E-05
(PID.TID 0000.0001) %MON dynstat_wvel_del2            =   1.5460455617834E-07
(PID.TID 0000.0001) %MON dynstat_theta_max            =   1.2000000000000E+00
(PID.TID 0000.0001) %MON dynstat_theta_min            =  -1.0000000000000E+00
(PID.TID 0000.0001) %MON dynstat_theta_mean           =   5.6477379762644E-01
(PID.TID 0000.0001) %MON dynstat_theta_sd             =   8.4877989329776E-01
(PID.TID 0000.0001) %MON dynstat_theta_del2           =   5.9121805963295E-06
(PID.TID 0000.0001) %MON dynstat_salt_max             =   3.4700000000000E+01
(PID.TID 0000.0001) %MON dynstat_salt_min             =   3.4000000000000E+01
(PID.TID 0000.0001) %MON dynstat_salt_mean            =   3.4497823627472E+01
(PID.TID 0000.0001) %MON dynstat_salt_sd              =   2.7005258056840E-01
(PID.TID 0000.0001) %MON dynstat_salt_del2            =   2.3434006911224E-06
(PID.TID 0000.0001) %MON advcfl_uvel_max              =   6.6697489477004E-03
(PID.TID 0000.0001) %MON advcfl_vvel_max              =   3.6849448263580E-03
(PID.TID 0000.0001) %MON advcfl_wvel_max              =   1.5236621285868E-02
(PID.TID 0000.0001) %MON advcfl_W_hf_max              =   1.5236621285868E-02
(PID.TID 0000.0001) %MON pe_b_mean                    =  -6.8107841554788E-01
(PID.TID 0000.0001) %MON ke_max                       =   2.0801161536650E-03
(PID.TID 0000.0001) %MON ke_mean                      =   2.1945312999793E-06
(PID.TID 0000.0001) %MON ke_vol                       =   4.6183244653965E+12
(PID.TID 0000.0001) // =======================================================
(PID.TID 0000.0001) // End MONITOR dynamic field statistics
(PID.TID 0000.0001) // =======================================================
(PID.TID 0000.0001) // =======================================================
(PID.TID 0000.0001) // Begin OBCS MONITOR field statistics
(PID.TID 0000.0001) // =======================================================
(PID.TID 0000.0001) %MON obc_N_vVel_max               =   1.0058838667005E-07
(PID.TID 0000.0001) %MON obc_N_vVel_min               =   1.0058838667004E-07
(PID.TID 0000.0001) %MON obc_N_vVel_mean              =   1.0058838667004E-07
(PID.TID 0000.0001) %MON obc_N_vVel_sd                =   3.1751602115050E-14
(PID.TID 0000.0001) %MON obc_N_vVel_Int               =   6.6388335202229E+00
(PID.TID 0000.0001) // =======================================================
(PID.TID 0000.0001) // End OBCS MONITOR field statistics
(PID.TID 0000.0001) // =======================================================
 cg2d: Sum(rhs),rhsMax =   3.00504888659954E+00  4.53037403188049E+02
(PID.TID 0000.0001)      cg2d_init_res =   6.48811521209943E-06
(PID.TID 0000.0001)      cg2d_iters(min,last) =      -1      79
(PID.TID 0000.0001)      cg2d_last_res =   9.23770317677356E-12
(PID.TID 0000.0001) // =======================================================
(PID.TID 0000.0001) // Begin MONITOR dynamic field statistics
(PID.TID 0000.0001) // =======================================================
(PID.TID 0000.0001) %MON time_tsnumber                =                  1524
(PID.TID 0000.0001) %MON time_secondsf                =   1.5240000000000E+05
(PID.TID 0000.0001) %MON dynstat_eta_max              =   5.7997586039111E+00
(PID.TID 0000.0001) %MON dynstat_eta_min              =  -1.4164172959641E+01
(PID.TID 0000.0001) %MON dynstat_eta_mean             =  -2.5211102667374E+00
(PID.TID 0000.0001) %MON dynstat_eta_sd               =   4.9402258095908E+00
(PID.TID 0000.0001) %MON dynstat_eta_del2             =   1.9059664657413E-01
(PID.TID 0000.0001) %MON dynstat_uvel_max             =   1.4788075347311E-02
(PID.TID 0000.0001) %MON dynstat_uvel_min             =  -6.6829057802202E-02
(PID.TID 0000.0001) %MON dynstat_uvel_mean            =   6.5440203344810E-09
(PID.TID 0000.0001) %MON dynstat_uvel_sd              =   1.9437836588220E-03
(PID.TID 0000.0001) %MON dynstat_uvel_del2            =   3.0537120725486E-06
(PID.TID 0000.0001) %MON dynstat_vvel_max             =   3.6892424567741E-02
(PID.TID 0000.0001) %MON dynstat_vvel_min             =  -2.0495699449375E-02
(PID.TID 0000.0001) %MON dynstat_vvel_mean            =   1.6269569965097E-07
(PID.TID 0000.0001) %MON dynstat_vvel_sd              =   8.3656566506896E-04
(PID.TID 0000.0001) %MON dynstat_vvel_del2            =   2.1492168636902E-06
(PID.TID 0000.0001) %MON dynstat_wvel_max             =   2.4625585318205E-03
(PID.TID 0000.0001) %MON dynstat_wvel_min             =  -3.0499696921727E-03
(PID.TID 0000.0001) %MON dynstat_wvel_mean            =   5.4479052425469E-10
(PID.TID 0000.0001) %MON dynstat_wvel_sd              =   4.1699888706571E-05
(PID.TID 0000.0001) %MON dynstat_wvel_del2            =   1.5478526377876E-07
(PID.TID 0000.0001) %MON dynstat_theta_max            =   1.2000000000000E+00
(PID.TID 0000.0001) %MON dynstat_theta_min            =  -1.0000000000000E+00
(PID.TID 0000.0001) %MON dynstat_theta_mean           =   5.6477248185493E-01
(PID.TID 0000.0001) %MON dynstat_theta_sd             =   8.4877931731601E-01
(PID.TID 0000.0001) %MON dynstat_theta_del2           =   5.9218179381400E-06
(PID.TID 0000.0001) %MON dynstat_salt_max             =   3.4700000000000E+01
(PID.TID 0000.0001) %MON dynstat_salt_min             =   3.4000000000000E+01
(PID.TID 0000.0001) %MON dynstat_salt_mean            =   3.4497823101265E+01
(PID.TID 0000.0001) %MON dynstat_salt_sd              =   2.7005236541736E-01
(PID.TID 0000.0001) %MON dynstat_salt_del2            =   2.3472309075096E-06
(PID.TID 0000.0001) %MON advcfl_uvel_max              =   6.6829057802202E-03
(PID.TID 0000.0001) %MON advcfl_vvel_max              =   3.6892424567741E-03
(PID.TID 0000.0001) %MON advcfl_wvel_max              =   1.5249848460864E-02
(PID.TID 0000.0001) %MON advcfl_W_hf_max              =   1.5249848460864E-02
(PID.TID 0000.0001) %MON pe_b_mean                    =  -6.8107486683851E-01
(PID.TID 0000.0001) %MON ke_max                       =   2.0888522797972E-03
(PID.TID 0000.0001) %MON ke_mean                      =   2.2035454650243E-06
(PID.TID 0000.0001) %MON ke_vol                       =   4.6183245351557E+12
(PID.TID 0000.0001) // =======================================================
(PID.TID 0000.0001) // End MONITOR dynamic field statistics
(PID.TID 0000.0001) // =======================================================
(PID.TID 0000.0001) // =======================================================
(PID.TID 0000.0001) // Begin OBCS MONITOR field statistics
(PID.TID 0000.0001) // =======================================================
(PID.TID 0000.0001) %MON obc_N_vVel_max               =   1.0313549977690E-07
(PID.TID 0000.0001) %MON obc_N_vVel_min               =   1.0313549977690E-07
(PID.TID 0000.0001) %MON obc_N_vVel_mean              =   1.0313549977690E-07
(PID.TID 0000.0001) %MON obc_N_vVel_sd                =   1.6616296724221E-14
(PID.TID 0000.0001) %MON obc_N_vVel_Int               =   6.8069429852752E+00
(PID.TID 0000.0001) // =======================================================
(PID.TID 0000.0001) // End OBCS MONITOR field statistics
(PID.TID 0000.0001) // =======================================================
 cg2d: Sum(rhs),rhsMax =   3.00503499678736E+00  4.53037380676426E+02
(PID.TID 0000.0001)      cg2d_init_res =   6.49778533390246E-06
(PID.TID 0000.0001)      cg2d_iters(min,last) =      -1      79
(PID.TID 0000.0001)      cg2d_last_res =   9.25513082668965E-12
(PID.TID 0000.0001) // =======================================================
(PID.TID 0000.0001) // Begin MONITOR dynamic field statistics
(PID.TID 0000.0001) // =======================================================
(PID.TID 0000.0001) %MON time_tsnumber                =                  1525
(PID.TID 0000.0001) %MON time_secondsf                =   1.5250000000000E+05
(PID.TID 0000.0001) %MON dynstat_eta_max              =   5.7997619622785E+00
(PID.TID 0000.0001) %MON dynstat_eta_min              =  -1.4164145302530E+01
(PID.TID 0000.0001) %MON dynstat_eta_mean             =  -2.5210984884917E+00
(PID.TID 0000.0001) %MON dynstat_eta_sd               =   4.9402224165873E+00
(PID.TID 0000.0001) %MON dynstat_eta_del2             =   1.9059668210743E-01
(PID.TID 0000.0001) %MON dynstat_uvel_max             =   1.4818268686601E-02
(PID.TID 0000.0001) %MON dynstat_uvel_min             =  -6.6960712208992E-02
(PID.TID 0000.0001) %MON dynstat_uvel_mean            =   6.5767807793485E-09
(PID.TID 0000.0001) %MON dynstat_uvel_sd              =   1.9478413859000E-03
(PID.TID 0000.0001) %MON dynstat_uvel_del2            =   3.0605466211299E-06
(PID.TID 0000.0001) %MON dynstat_vvel_max             =   3.6935396857187E-02
(PID.TID 0000.0001) %MON dynstat_vvel_min             =  -2.0542772013583E-02
(PID.TID 0000.0001) %MON dynstat_vvel_mean            =   1.6487008050103E-07
(PID.TID 0000.0001) %MON dynstat_vvel_sd              =   8.3811623821096E-04
(PID.TID 0000.0001) %MON dynstat_vvel_del2            =   2.1527594123488E-06
(PID.TID 0000.0001) %MON dynstat_wvel_max             =   2.4661670623253E-03
(PID.TID 0000.0001) %MON dynstat_wvel_min             =  -3.0525910215968E-03
(PID.TID 0000.0001) %MON dynstat_wvel_mean            =   5.4267899808960E-10
(PID.TID 0000.0001) %MON dynstat_wvel_sd              =   4.1763450218306E-05
(PID.TID 0000.0001) %MON dynstat_wvel_del2            =   1.5496537936913E-07
(PID.TID 0000.0001) %MON dynstat_theta_max            =   1.2000000000000E+00
(PID.TID 0000.0001) %MON dynstat_theta_min            =  -1.0000000000000E+00
(PID.TID 0000.0001) %MON dynstat_theta_mean           =   5.6477116388532E-01
(PID.TID 0000.0001) %MON dynstat_theta_sd             =   8.4877874056131E-01
(PID.TID 0000.0001) %MON dynstat_theta_del2           =   5.9314620987148E-06
(PID.TID 0000.0001) %MON dynstat_salt_max             =   3.4700000000000E+01
(PID.TID 0000.0001) %MON dynstat_salt_min             =   3.4000000000000E+01
(PID.TID 0000.0001) %MON dynstat_salt_mean            =   3.4497822574179E+01
(PID.TID 0000.0001) %MON dynstat_salt_sd              =   2.7005214999671E-01
(PID.TID 0000.0001) %MON dynstat_salt_del2            =   2.3510650720026E-06
(PID.TID 0000.0001) %MON advcfl_uvel_max              =   6.6960712208992E-03
(PID.TID 0000.0001) %MON advcfl_vvel_max              =   3.6935396857187E-03
(PID.TID 0000.0001) %MON advcfl_wvel_max              =   1.5262955107984E-02
(PID.TID 0000.0001) %MON advcfl_W_hf_max              =   1.5262955107984E-02
(PID.TID 0000.0001) %MON pe_b_mean                    =  -6.8107131257702E-01
(PID.TID 0000.0001) %MON ke_max                       =   2.0976140289893E-03
(PID.TID 0000.0001) %MON ke_mean                      =   2.2125909394811E-06
(PID.TID 0000.0001) %MON ke_vol                       =   4.6183246050156E+12
(PID.TID 0000.0001) // =======================================================
(PID.TID 0000.0001) // End MONITOR dynamic field statistics
(PID.TID 0000.0001) // =======================================================
(PID.TID 0000.0001) // =======================================================
(PID.TID 0000.0001) // Begin OBCS MONITOR field statistics
(PID.TID 0000.0001) // =======================================================
(PID.TID 0000.0001) %MON obc_N_vVel_max               =   1.0536284877171E-07
(PID.TID 0000.0001) %MON obc_N_vVel_min               =   1.0536284877170E-07
(PID.TID 0000.0001) %MON obc_N_vVel_mean              =   1.0536284877170E-07
(PID.TID 0000.0001) %MON obc_N_vVel_sd                =   2.4095676505188E-14
(PID.TID 0000.0001) %MON obc_N_vVel_Int               =   6.9539480189323E+00
(PID.TID 0000.0001) // =======================================================
(PID.TID 0000.0001) // End OBCS MONITOR field statistics
(PID.TID 0000.0001) // =======================================================
 cg2d: Sum(rhs),rhsMax =   3.00502108600300E+00  4.53037358138586E+02
(PID.TID 0000.0001)      cg2d_init_res =   6.50749852897591E-06
(PID.TID 0000.0001)      cg2d_iters(min,last) =      -1      79
(PID.TID 0000.0001)      cg2d_last_res =   9.27266173310339E-12
(PID.TID 0000.0001) // =======================================================
(PID.TID 0000.0001) // Begin MONITOR dynamic field statistics
(PID.TID 0000.0001) // =======================================================
(PID.TID 0000.0001) %MON time_tsnumber                =                  1526
(PID.TID 0000.0001) %MON time_secondsf                =   1.5260000000000E+05
(PID.TID 0000.0001) %MON dynstat_eta_max              =   5.7997653201701E+00
(PID.TID 0000.0001) %MON dynstat_eta_min              =  -1.4164117587648E+01
(PID.TID 0000.0001) %MON dynstat_eta_mean             =  -2.5210866925066E+00
(PID.TID 0000.0001) %MON dynstat_eta_sd               =   4.9402190180315E+00
(PID.TID 0000.0001) %MON dynstat_eta_del2             =   1.9059671769358E-01
(PID.TID 0000.0001) %MON dynstat_uvel_max             =   1.4848488898850E-02
(PID.TID 0000.0001) %MON dynstat_uvel_min             =  -6.7092452727870E-02
(PID.TID 0000.0001) %MON dynstat_uvel_mean            =   6.6111972607551E-09
(PID.TID 0000.0001) %MON dynstat_uvel_sd              =   1.9519048625684E-03
(PID.TID 0000.0001) %MON dynstat_uvel_del2            =   3.0673938580100E-06
(PID.TID 0000.0001) %MON dynstat_vvel_max             =   3.6978365006814E-02
(PID.TID 0000.0001) %MON dynstat_vvel_min             =  -2.0589859537697E-02
(PID.TID 0000.0001) %MON dynstat_vvel_mean            =   1.6664614788676E-07
(PID.TID 0000.0001) %MON dynstat_vvel_sd              =   8.3966899211767E-04
(PID.TID 0000.0001) %MON dynstat_vvel_del2            =   2.1563055976196E-06
(PID.TID 0000.0001) %MON dynstat_wvel_max             =   2.4697752375306E-03
(PID.TID 0000.0001) %MON dynstat_wvel_min             =  -3.0551881248546E-03
(PID.TID 0000.0001) %MON dynstat_wvel_mean            =   5.4038494917476E-10
(PID.TID 0000.0001) %MON dynstat_wvel_sd              =   4.1826956830541E-05
(PID.TID 0000.0001) %MON dynstat_wvel_del2            =   1.5514519275520E-07
(PID.TID 0000.0001) %MON dynstat_theta_max            =   1.2000000000000E+00
(PID.TID 0000.0001) %MON dynstat_theta_min            =  -1.0000000000000E+00
(PID.TID 0000.0001) %MON dynstat_theta_mean           =   5.6476984371528E-01
(PID.TID 0000.0001) %MON dynstat_theta_sd             =   8.4877816303786E-01
(PID.TID 0000.0001) %MON dynstat_theta_del2           =   5.9411162160740E-06
(PID.TID 0000.0001) %MON dynstat_salt_max             =   3.4700000000000E+01
(PID.TID 0000.0001) %MON dynstat_salt_min             =   3.4000000000000E+01
(PID.TID 0000.0001) %MON dynstat_salt_mean            =   3.4497822046213E+01
(PID.TID 0000.0001) %MON dynstat_salt_sd              =   2.7005193430548E-01
(PID.TID 0000.0001) %MON dynstat_salt_del2            =   2.3549022010881E-06
(PID.TID 0000.0001) %MON advcfl_uvel_max              =   6.7092452727870E-03
(PID.TID 0000.0001) %MON advcfl_vvel_max              =   3.6978365006814E-03
(PID.TID 0000.0001) %MON advcfl_wvel_max              =   1.5275940624273E-02
(PID.TID 0000.0001) %MON advcfl_W_hf_max              =   1.5275940624273E-02
(PID.TID 0000.0001) %MON pe_b_mean                    =  -6.8106775267077E-01
(PID.TID 0000.0001) %MON ke_max                       =   2.1064013839417E-03
(PID.TID 0000.0001) %MON ke_mean                      =   2.2216678164587E-06
(PID.TID 0000.0001) %MON ke_vol                       =   4.6183246749784E+12
(PID.TID 0000.0001) // =======================================================
(PID.TID 0000.0001) // End MONITOR dynamic field statistics
(PID.TID 0000.0001) // =======================================================
(PID.TID 0000.0001) // =======================================================
(PID.TID 0000.0001) // Begin OBCS MONITOR field statistics
(PID.TID 0000.0001) // =======================================================
(PID.TID 0000.0001) %MON obc_N_vVel_max               =   1.0723366126120E-07
(PID.TID 0000.0001) %MON obc_N_vVel_min               =   1.0723366126120E-07
(PID.TID 0000.0001) %MON obc_N_vVel_mean              =   1.0723366126120E-07
(PID.TID 0000.0001) %MON obc_N_vVel_sd                =   1.4099395310285E-14
(PID.TID 0000.0001) %MON obc_N_vVel_Int               =   7.0774216432390E+00
(PID.TID 0000.0001) // =======================================================
(PID.TID 0000.0001) // End OBCS MONITOR field statistics
(PID.TID 0000.0001) // =======================================================
 cg2d: Sum(rhs),rhsMax =   3.00500715375514E+00  4.53037335568217E+02
(PID.TID 0000.0001)      cg2d_init_res =   6.51724016276742E-06
(PID.TID 0000.0001)      cg2d_iters(min,last) =      -1      79
(PID.TID 0000.0001)      cg2d_last_res =   9.29028556484481E-12
(PID.TID 0000.0001) // =======================================================
(PID.TID 0000.0001) // Begin MONITOR dynamic field statistics
(PID.TID 0000.0001) // =======================================================
(PID.TID 0000.0001) %MON time_tsnumber                =                  1527
(PID.TID 0000.0001) %MON time_secondsf                =   1.5270000000000E+05
(PID.TID 0000.0001) %MON dynstat_eta_max              =   5.7997686783951E+00
(PID.TID 0000.0001) %MON dynstat_eta_min              =  -1.4164089814015E+01
(PID.TID 0000.0001) %MON dynstat_eta_mean             =  -2.5210748783345E+00
(PID.TID 0000.0001) %MON dynstat_eta_sd               =   4.9402156137556E+00
(PID.TID 0000.0001) %MON dynstat_eta_del2             =   1.9059675333232E-01
(PID.TID 0000.0001) %MON dynstat_uvel_max             =   1.4878735878903E-02
(PID.TID 0000.0001) %MON dynstat_uvel_min             =  -6.7224279391969E-02
(PID.TID 0000.0001) %MON dynstat_uvel_mean            =   6.6468699318776E-09
(PID.TID 0000.0001) %MON dynstat_uvel_sd              =   1.9559740849836E-03
(PID.TID 0000.0001) %MON dynstat_uvel_del2            =   3.0742537951252E-06
(PID.TID 0000.0001) %MON dynstat_vvel_max             =   3.7021328891976E-02
(PID.TID 0000.0001) %MON dynstat_vvel_min             =  -2.0636961101912E-02
(PID.TID 0000.0001) %MON dynstat_vvel_mean            =   1.6799998723324E-07
(PID.TID 0000.0001) %MON dynstat_vvel_sd              =   8.4122395582035E-04
(PID.TID 0000.0001) %MON dynstat_vvel_del2            =   2.1598555255605E-06
(PID.TID 0000.0001) %MON dynstat_wvel_max             =   2.4733830358872E-03
(PID.TID 0000.0001) %MON dynstat_wvel_min             =  -3.0577608811977E-03
(PID.TID 0000.0001) %MON dynstat_wvel_mean            =   5.3797925026753E-10
(PID.TID 0000.0001) %MON dynstat_wvel_sd              =   4.1890488394261E-05
(PID.TID 0000.0001) %MON dynstat_wvel_del2            =   1.5532500326359E-07
(PID.TID 0000.0001) %MON dynstat_theta_max            =   1.2000000000000E+00
(PID.TID 0000.0001) %MON dynstat_theta_min            =  -1.0000000000000E+00
(PID.TID 0000.0001) %MON dynstat_theta_mean           =   5.6476852134247E-01
(PID.TID 0000.0001) %MON dynstat_theta_sd             =   8.4877758474619E-01
(PID.TID 0000.0001) %MON dynstat_theta_del2           =   5.9507802306623E-06
(PID.TID 0000.0001) %MON dynstat_salt_max             =   3.4700000000000E+01
(PID.TID 0000.0001) %MON dynstat_salt_min             =   3.4000000000000E+01
(PID.TID 0000.0001) %MON dynstat_salt_mean            =   3.4497821517365E+01
(PID.TID 0000.0001) %MON dynstat_salt_sd              =   2.7005171834488E-01
(PID.TID 0000.0001) %MON dynstat_salt_del2            =   2.3587430046618E-06
(PID.TID 0000.0001) %MON advcfl_uvel_max              =   6.7224279391969E-03
(PID.TID 0000.0001) %MON advcfl_vvel_max              =   3.7021328891976E-03
(PID.TID 0000.0001) %MON advcfl_wvel_max              =   1.5288804405989E-02
(PID.TID 0000.0001) %MON advcfl_W_hf_max              =   1.5288804405989E-02
(PID.TID 0000.0001) %MON pe_b_mean                    =  -6.8106418702257E-01
(PID.TID 0000.0001) %MON ke_max                       =   2.1152143265096E-03
(PID.TID 0000.0001) %MON ke_mean                      =   2.2307761919254E-06
(PID.TID 0000.0001) %MON ke_vol                       =   4.6183247450465E+12
(PID.TID 0000.0001) // =======================================================
(PID.TID 0000.0001) // End MONITOR dynamic field statistics
(PID.TID 0000.0001) // =======================================================
(PID.TID 0000.0001) // =======================================================
(PID.TID 0000.0001) // Begin OBCS MONITOR field statistics
(PID.TID 0000.0001) // =======================================================
(PID.TID 0000.0001) %MON obc_N_vVel_max               =   1.0871935469205E-07
(PID.TID 0000.0001) %MON obc_N_vVel_min               =   1.0871935469205E-07
(PID.TID 0000.0001) %MON obc_N_vVel_mean              =   1.0871935469205E-07
(PID.TID 0000.0001) %MON obc_N_vVel_sd                =  -6.0426745339930E-28
(PID.TID 0000.0001) %MON obc_N_vVel_Int               =   7.1754774096756E+00
(PID.TID 0000.0001) // =======================================================
(PID.TID 0000.0001) // End OBCS MONITOR field statistics
(PID.TID 0000.0001) // =======================================================
 cg2d: Sum(rhs),rhsMax =   3.00499319952147E+00  4.53037312959597E+02
(PID.TID 0000.0001)      cg2d_init_res =   6.52701472610173E-06
(PID.TID 0000.0001)      cg2d_iters(min,last) =      -1      79
(PID.TID 0000.0001)      cg2d_last_res =   9.30801935389868E-12
(PID.TID 0000.0001) // =======================================================
(PID.TID 0000.0001) // Begin MONITOR dynamic field statistics
(PID.TID 0000.0001) // =======================================================
(PID.TID 0000.0001) %MON time_tsnumber                =                  1528
(PID.TID 0000.0001) %MON time_secondsf                =   1.5280000000000E+05
(PID.TID 0000.0001) %MON dynstat_eta_max              =   5.7997720378004E+00
(PID.TID 0000.0001) %MON dynstat_eta_min              =  -1.4164061980628E+01
(PID.TID 0000.0001) %MON dynstat_eta_mean             =  -2.5210630455057E+00
(PID.TID 0000.0001) %MON dynstat_eta_sd               =   4.9402122035935E+00
(PID.TID 0000.0001) %MON dynstat_eta_del2             =   1.9059678902346E-01
(PID.TID 0000.0001) %MON dynstat_uvel_max             =   1.4909009504946E-02
(PID.TID 0000.0001) %MON dynstat_uvel_min             =  -6.7356192237131E-02
(PID.TID 0000.0001) %MON dynstat_uvel_mean            =   6.6833865831687E-09
(PID.TID 0000.0001) %MON dynstat_uvel_sd              =   1.9600490492869E-03
(PID.TID 0000.0001) %MON dynstat_uvel_del2            =   3.0811264441917E-06
(PID.TID 0000.0001) %MON dynstat_vvel_max             =   3.7064288388644E-02
(PID.TID 0000.0001) %MON dynstat_vvel_min             =  -2.0684075534430E-02
(PID.TID 0000.0001) %MON dynstat_vvel_mean            =   1.6891710647040E-07
(PID.TID 0000.0001) %MON dynstat_vvel_sd              =   8.4278115661985E-04
(PID.TID 0000.0001) %MON dynstat_vvel_del2            =   2.1634092956792E-06
(PID.TID 0000.0001) %MON dynstat_wvel_max             =   2.4769904357951E-03
(PID.TID 0000.0001) %MON dynstat_wvel_min             =  -3.0603092153875E-03
(PID.TID 0000.0001) %MON dynstat_wvel_mean            =   5.3553141420532E-10
(PID.TID 0000.0001) %MON dynstat_wvel_sd              =   4.1954122934268E-05
(PID.TID 0000.0001) %MON dynstat_wvel_del2            =   1.5550510121550E-07
(PID.TID 0000.0001) %MON dynstat_theta_max            =   1.2000000000000E+00
(PID.TID 0000.0001) %MON dynstat_theta_min            =  -1.0000000000000E+00
(PID.TID 0000.0001) %MON dynstat_theta_mean           =   5.6476719676455E-01
(PID.TID 0000.0001) %MON dynstat_theta_sd             =   8.4877700568626E-01
(PID.TID 0000.0001) %MON dynstat_theta_del2           =   5.9604540924560E-06
(PID.TID 0000.0001) %MON dynstat_salt_max             =   3.4700000000000E+01
(PID.TID 0000.0001) %MON dynstat_salt_min             =   3.4000000000000E+01
(PID.TID 0000.0001) %MON dynstat_salt_mean            =   3.4497820987635E+01
(PID.TID 0000.0001) %MON dynstat_salt_sd              =   2.7005150211556E-01
(PID.TID 0000.0001) %MON dynstat_salt_del2            =   2.3625877453368E-06
(PID.TID 0000.0001) %MON advcfl_uvel_max              =   6.7356192237131E-03
(PID.TID 0000.0001) %MON advcfl_vvel_max              =   3.7064288388644E-03
(PID.TID 0000.0001) %MON advcfl_wvel_max              =   1.5301546076937E-02
(PID.TID 0000.0001) %MON advcfl_W_hf_max              =   1.5301546076937E-02
(PID.TID 0000.0001) %MON pe_b_mean                    =  -6.8106061553251E-01
(PID.TID 0000.0001) %MON ke_max                       =   2.1240528376258E-03
(PID.TID 0000.0001) %MON ke_mean                      =   2.2399161605960E-06
(PID.TID 0000.0001) %MON ke_vol                       =   4.6183248152227E+12
(PID.TID 0000.0001) // =======================================================
(PID.TID 0000.0001) // End MONITOR dynamic field statistics
(PID.TID 0000.0001) // =======================================================
(PID.TID 0000.0001) // =======================================================
(PID.TID 0000.0001) // Begin OBCS MONITOR field statistics
(PID.TID 0000.0001) // =======================================================
(PID.TID 0000.0001) %MON obc_N_vVel_max               =   1.0980008036116E-07
(PID.TID 0000.0001) %MON obc_N_vVel_min               =   1.0980008036116E-07
(PID.TID 0000.0001) %MON obc_N_vVel_mean              =   1.0980008036116E-07
(PID.TID 0000.0001) %MON obc_N_vVel_sd                =  -3.7549779088520E-28
(PID.TID 0000.0001) %MON obc_N_vVel_Int               =   7.2468053038366E+00
(PID.TID 0000.0001) // =======================================================
(PID.TID 0000.0001) // End OBCS MONITOR field statistics
(PID.TID 0000.0001) // =======================================================
 cg2d: Sum(rhs),rhsMax =   3.00497922276282E+00  4.53037290307684E+02
(PID.TID 0000.0001)      cg2d_init_res =   6.53679900265331E-06
(PID.TID 0000.0001)      cg2d_iters(min,last) =      -1      79
(PID.TID 0000.0001)      cg2d_last_res =   9.32587437798357E-12
(PID.TID 0000.0001) // =======================================================
(PID.TID 0000.0001) // Begin MONITOR dynamic field statistics
(PID.TID 0000.0001) // =======================================================
(PID.TID 0000.0001) %MON time_tsnumber                =                  1529
(PID.TID 0000.0001) %MON time_secondsf                =   1.5290000000000E+05
(PID.TID 0000.0001) %MON dynstat_eta_max              =   5.7997753992398E+00
(PID.TID 0000.0001) %MON dynstat_eta_min              =  -1.4164034086475E+01
(PID.TID 0000.0001) %MON dynstat_eta_mean             =  -2.5210511935396E+00
(PID.TID 0000.0001) %MON dynstat_eta_sd               =   4.9402087873804E+00
(PID.TID 0000.0001) %MON dynstat_eta_del2             =   1.9059682476657E-01
(PID.TID 0000.0001) %MON dynstat_uvel_max             =   1.4939309671897E-02
(PID.TID 0000.0001) %MON dynstat_uvel_min             =  -6.7488191300530E-02
(PID.TID 0000.0001) %MON dynstat_uvel_mean            =   6.7203362554073E-09
(PID.TID 0000.0001) %MON dynstat_uvel_sd              =   1.9641297515894E-03
(PID.TID 0000.0001) %MON dynstat_uvel_del2            =   3.0880118159838E-06
(PID.TID 0000.0001) %MON dynstat_vvel_max             =   3.7107243373364E-02
(PID.TID 0000.0001) %MON dynstat_vvel_min             =  -2.0731201888900E-02
(PID.TID 0000.0001) %MON dynstat_vvel_mean            =   1.6939273825457E-07
(PID.TID 0000.0001) %MON dynstat_vvel_sd              =   8.4434061951810E-04
(PID.TID 0000.0001) %MON dynstat_vvel_del2            =   2.1669669968397E-06
(PID.TID 0000.0001) %MON dynstat_wvel_max             =   2.4805974155761E-03
(PID.TID 0000.0001) %MON dynstat_wvel_min             =  -3.0628330083729E-03
(PID.TID 0000.0001) %MON dynstat_wvel_mean            =   5.3311117578856E-10
(PID.TID 0000.0001) %MON dynstat_wvel_sd              =   4.2017932599654E-05
(PID.TID 0000.0001) %MON dynstat_wvel_del2            =   1.5568574535753E-07
(PID.TID 0000.0001) %MON dynstat_theta_max            =   1.2000000000000E+00
(PID.TID 0000.0001) %MON dynstat_theta_min            =  -1.0000000000000E+00
(PID.TID 0000.0001) %MON dynstat_theta_mean           =   5.6476586997937E-01
(PID.TID 0000.0001) %MON dynstat_theta_sd             =   8.4877642585795E-01
(PID.TID 0000.0001) %MON dynstat_theta_del2           =   5.9701377718497E-06
(PID.TID 0000.0001) %MON dynstat_salt_max             =   3.4700000000000E+01
(PID.TID 0000.0001) %MON dynstat_salt_min             =   3.4000000000000E+01
(PID.TID 0000.0001) %MON dynstat_salt_mean            =   3.4497820457021E+01
(PID.TID 0000.0001) %MON dynstat_salt_sd              =   2.7005128561762E-01
(PID.TID 0000.0001) %MON dynstat_salt_del2            =   2.3664364194047E-06
(PID.TID 0000.0001) %MON advcfl_uvel_max              =   6.7488191300530E-03
(PID.TID 0000.0001) %MON advcfl_vvel_max              =   3.7107243373364E-03
(PID.TID 0000.0001) %MON advcfl_wvel_max              =   1.5314165041865E-02
(PID.TID 0000.0001) %MON advcfl_W_hf_max              =   1.5314165041865E-02
(PID.TID 0000.0001) %MON pe_b_mean                    =  -6.8105703810059E-01
(PID.TID 0000.0001) %MON ke_max                       =   2.1329168972341E-03
(PID.TID 0000.0001) %MON ke_mean                      =   2.2490878154085E-06
(PID.TID 0000.0001) %MON ke_vol                       =   4.6183248855097E+12
(PID.TID 0000.0001) // =======================================================
(PID.TID 0000.0001) // End MONITOR dynamic field statistics
(PID.TID 0000.0001) // =======================================================
(PID.TID 0000.0001) // =======================================================
(PID.TID 0000.0001) // Begin OBCS MONITOR field statistics
(PID.TID 0000.0001) // =======================================================
(PID.TID 0000.0001) %MON obc_N_vVel_max               =   1.1046509454540E-07
(PID.TID 0000.0001) %MON obc_N_vVel_min               =   1.1046509454540E-07
(PID.TID 0000.0001) %MON obc_N_vVel_mean              =   1.1046509454540E-07
(PID.TID 0000.0001) %MON obc_N_vVel_sd                =   2.9564469942566E-14
(PID.TID 0000.0001) %MON obc_N_vVel_Int               =   7.2906962399963E+00
(PID.TID 0000.0001) // =======================================================
(PID.TID 0000.0001) // End OBCS MONITOR field statistics
(PID.TID 0000.0001) // =======================================================
 cg2d: Sum(rhs),rhsMax =   3.00496522293165E+00  4.53037267608267E+02
(PID.TID 0000.0001)      cg2d_init_res =   6.54660724279375E-06
(PID.TID 0000.0001)      cg2d_iters(min,last) =      -1      79
(PID.TID 0000.0001)      cg2d_last_res =   9.34384887555396E-12
(PID.TID 0000.0001) // =======================================================
(PID.TID 0000.0001) // Begin MONITOR dynamic field statistics
(PID.TID 0000.0001) // =======================================================
(PID.TID 0000.0001) %MON time_tsnumber                =                  1530
(PID.TID 0000.0001) %MON time_secondsf                =   1.5300000000000E+05
(PID.TID 0000.0001) %MON dynstat_eta_max              =   5.7997787635538E+00
(PID.TID 0000.0001) %MON dynstat_eta_min              =  -1.4164006130568E+01
(PID.TID 0000.0001) %MON dynstat_eta_mean             =  -2.5210393219534E+00
(PID.TID 0000.0001) %MON dynstat_eta_sd               =   4.9402053649617E+00
(PID.TID 0000.0001) %MON dynstat_eta_del2             =   1.9059686056143E-01
(PID.TID 0000.0001) %MON dynstat_uvel_max             =   1.4969636304988E-02
(PID.TID 0000.0001) %MON dynstat_uvel_min             =  -6.7620276621479E-02
(PID.TID 0000.0001) %MON dynstat_uvel_mean            =   6.7572979839634E-09
(PID.TID 0000.0001) %MON dynstat_uvel_sd              =   1.9682161879961E-03
(PID.TID 0000.0001) %MON dynstat_uvel_del2            =   3.0949099208521E-06
(PID.TID 0000.0001) %MON dynstat_vvel_max             =   3.7150193723292E-02
(PID.TID 0000.0001) %MON dynstat_vvel_min             =  -2.0778339207379E-02
(PID.TID 0000.0001) %MON dynstat_vvel_mean            =   1.6943188491575E-07
(PID.TID 0000.0001) %MON dynstat_vvel_sd              =   8.4590236679309E-04
(PID.TID 0000.0001) %MON dynstat_vvel_del2            =   2.1705287060905E-06
(PID.TID 0000.0001) %MON dynstat_wvel_max             =   2.4842039535167E-03
(PID.TID 0000.0001) %MON dynstat_wvel_min             =  -3.0653321426290E-03
(PID.TID 0000.0001) %MON dynstat_wvel_mean            =   5.3078753433513E-10
(PID.TID 0000.0001) %MON dynstat_wvel_sd              =   4.2081980395810E-05
(PID.TID 0000.0001) %MON dynstat_wvel_del2            =   1.5586715007587E-07
(PID.TID 0000.0001) %MON dynstat_theta_max            =   1.2000000000000E+00
(PID.TID 0000.0001) %MON dynstat_theta_min            =  -1.0000000000000E+00
(PID.TID 0000.0001) %MON dynstat_theta_mean           =   5.6476454098480E-01
(PID.TID 0000.0001) %MON dynstat_theta_sd             =   8.4877584526087E-01
(PID.TID 0000.0001) %MON dynstat_theta_del2           =   5.9798312519434E-06
(PID.TID 0000.0001) %MON dynstat_salt_max             =   3.4700000000000E+01
(PID.TID 0000.0001) %MON dynstat_salt_min             =   3.4000000000000E+01
(PID.TID 0000.0001) %MON dynstat_salt_mean            =   3.4497819925524E+01
(PID.TID 0000.0001) %MON dynstat_salt_sd              =   2.7005106885091E-01
(PID.TID 0000.0001) %MON dynstat_salt_del2            =   2.3702890289920E-06
(PID.TID 0000.0001) %MON advcfl_uvel_max              =   6.7620276621479E-03
(PID.TID 0000.0001) %MON advcfl_vvel_max              =   3.7150193723292E-03
(PID.TID 0000.0001) %MON advcfl_wvel_max              =   1.5326660713145E-02
(PID.TID 0000.0001) %MON advcfl_W_hf_max              =   1.5326660713145E-02
(PID.TID 0000.0001) %MON pe_b_mean                    =  -6.8105345462832E-01
(PID.TID 0000.0001) %MON ke_max                       =   2.1418064843666E-03
(PID.TID 0000.0001) %MON ke_mean                      =   2.2582912471924E-06
(PID.TID 0000.0001) %MON ke_vol                       =   4.6183249559104E+12
(PID.TID 0000.0001) // =======================================================
(PID.TID 0000.0001) // End MONITOR dynamic field statistics
(PID.TID 0000.0001) // =======================================================
(PID.TID 0000.0001) // =======================================================
(PID.TID 0000.0001) // Begin OBCS MONITOR field statistics
(PID.TID 0000.0001) // =======================================================
(PID.TID 0000.0001) %MON obc_N_vVel_max               =   1.1071288490779E-07
(PID.TID 0000.0001) %MON obc_N_vVel_min               =   1.1071288490779E-07
(PID.TID 0000.0001) %MON obc_N_vVel_mean              =   1.1071288490779E-07
(PID.TID 0000.0001) %MON obc_N_vVel_sd                =   1.5987211554602E-14
(PID.TID 0000.0001) %MON obc_N_vVel_Int               =   7.3070504039140E+00
(PID.TID 0000.0001) // =======================================================
(PID.TID 0000.0001) // End OBCS MONITOR field statistics
(PID.TID 0000.0001) // =======================================================
 cg2d: Sum(rhs),rhsMax =   3.00495119948483E+00  4.53037244858074E+02
(PID.TID 0000.0001)      cg2d_init_res =   6.55644007847769E-06
(PID.TID 0000.0001)      cg2d_iters(min,last) =      -1      79
(PID.TID 0000.0001)      cg2d_last_res =   9.36195462962494E-12
(PID.TID 0000.0001) // =======================================================
(PID.TID 0000.0001) // Begin MONITOR dynamic field statistics
(PID.TID 0000.0001) // =======================================================
(PID.TID 0000.0001) %MON time_tsnumber                =                  1531
(PID.TID 0000.0001) %MON time_secondsf                =   1.5310000000000E+05
(PID.TID 0000.0001) %MON dynstat_eta_max              =   5.7997821315709E+00
(PID.TID 0000.0001) %MON dynstat_eta_min              =  -1.4163978111946E+01
(PID.TID 0000.0001) %MON dynstat_eta_mean             =  -2.5210274302733E+00
(PID.TID 0000.0001) %MON dynstat_eta_sd               =   4.9402019361942E+00
(PID.TID 0000.0001) %MON dynstat_eta_del2             =   1.9059689640784E-01
(PID.TID 0000.0001) %MON dynstat_uvel_max             =   1.4999989296006E-02
(PID.TID 0000.0001) %MON dynstat_uvel_min             =  -6.7752448241730E-02
(PID.TID 0000.0001) %MON dynstat_uvel_mean            =   6.7938468236281E-09
(PID.TID 0000.0001) %MON dynstat_uvel_sd              =   1.9723083546033E-03
(PID.TID 0000.0001) %MON dynstat_uvel_del2            =   3.1018207695166E-06
(PID.TID 0000.0001) %MON dynstat_vvel_max             =   3.7193139316230E-02
(PID.TID 0000.0001) %MON dynstat_vvel_min             =  -2.0825486517216E-02
(PID.TID 0000.0001) %MON dynstat_vvel_mean            =   1.6904909955641E-07
(PID.TID 0000.0001) %MON dynstat_vvel_sd              =   8.4746641707305E-04
(PID.TID 0000.0001) %MON dynstat_vvel_del2            =   2.1740944850335E-06
(PID.TID 0000.0001) %MON dynstat_wvel_max             =   2.4878100278290E-03
(PID.TID 0000.0001) %MON dynstat_wvel_min             =  -3.0678065019335E-03
(PID.TID 0000.0001) %MON dynstat_wvel_mean            =   5.2862727148825E-10
(PID.TID 0000.0001) %MON dynstat_wvel_sd              =   4.2146317375377E-05
(PID.TID 0000.0001) %MON dynstat_wvel_del2            =   1.5604947445106E-07
(PID.TID 0000.0001) %MON dynstat_theta_max            =   1.2000000000000E+00
(PID.TID 0000.0001) %MON dynstat_theta_min            =  -1.0000000000000E+00
(PID.TID 0000.0001) %MON dynstat_theta_mean           =   5.6476320977878E-01
(PID.TID 0000.0001) %MON dynstat_theta_sd             =   8.4877526389315E-01
(PID.TID 0000.0001) %MON dynstat_theta_del2           =   5.9895344478850E-06
(PID.TID 0000.0001) %MON dynstat_salt_max             =   3.4700000000000E+01
(PID.TID 0000.0001) %MON dynstat_salt_min             =   3.4000000000000E+01
(PID.TID 0000.0001) %MON dynstat_salt_mean            =   3.4497819393142E+01
(PID.TID 0000.0001) %MON dynstat_salt_sd              =   2.7005085181512E-01
(PID.TID 0000.0001) %MON dynstat_salt_del2            =   2.3741455416452E-06
(PID.TID 0000.0001) %MON advcfl_uvel_max              =   6.7752448241730E-03
(PID.TID 0000.0001) %MON advcfl_vvel_max              =   3.7193139316230E-03
(PID.TID 0000.0001) %MON advcfl_wvel_max              =   1.5339032509668E-02
(PID.TID 0000.0001) %MON advcfl_W_hf_max              =   1.5339032509668E-02
(PID.TID 0000.0001) %MON pe_b_mean                    =  -6.8104986502098E-01
(PID.TID 0000.0001) %MON ke_max                       =   2.1507215771815E-03
(PID.TID 0000.0001) %MON ke_mean                      =   2.2675265438601E-06
(PID.TID 0000.0001) %MON ke_vol                       =   4.6183250264276E+12
(PID.TID 0000.0001) // =======================================================
(PID.TID 0000.0001) // End MONITOR dynamic field statistics
(PID.TID 0000.0001) // =======================================================
(PID.TID 0000.0001) // =======================================================
(PID.TID 0000.0001) // Begin OBCS MONITOR field statistics
(PID.TID 0000.0001) // =======================================================
(PID.TID 0000.0001) %MON obc_N_vVel_max               =   1.1055111904852E-07
(PID.TID 0000.0001) %MON obc_N_vVel_min               =   1.1055111904851E-07
(PID.TID 0000.0001) %MON obc_N_vVel_mean              =   1.1055111904852E-07
(PID.TID 0000.0001) %MON obc_N_vVel_sd                =  -4.1336311433581E-28
(PID.TID 0000.0001) %MON obc_N_vVel_Int               =   7.2963738572022E+00
(PID.TID 0000.0001) // =======================================================
(PID.TID 0000.0001) // End OBCS MONITOR field statistics
(PID.TID 0000.0001) // =======================================================
 cg2d: Sum(rhs),rhsMax =   3.00493715189474E+00  4.53037222054819E+02
(PID.TID 0000.0001)      cg2d_init_res =   6.56629460163433E-06
(PID.TID 0000.0001)      cg2d_iters(min,last) =      -1      79
(PID.TID 0000.0001)      cg2d_last_res =   9.38015597192003E-12
(PID.TID 0000.0001) // =======================================================
(PID.TID 0000.0001) // Begin MONITOR dynamic field statistics
(PID.TID 0000.0001) // =======================================================
(PID.TID 0000.0001) %MON time_tsnumber                =                  1532
(PID.TID 0000.0001) %MON time_secondsf                =   1.5320000000000E+05
(PID.TID 0000.0001) %MON dynstat_eta_max              =   5.7997855040708E+00
(PID.TID 0000.0001) %MON dynstat_eta_min              =  -1.4163950029710E+01
(PID.TID 0000.0001) %MON dynstat_eta_mean             =  -2.5210155180439E+00
(PID.TID 0000.0001) %MON dynstat_eta_sd               =   4.9401985009495E+00
(PID.TID 0000.0001) %MON dynstat_eta_del2             =   1.9059693230567E-01
(PID.TID 0000.0001) %MON dynstat_uvel_max             =   1.5030368539844E-02
(PID.TID 0000.0001) %MON dynstat_uvel_min             =  -6.7884706205479E-02
(PID.TID 0000.0001) %MON dynstat_uvel_mean            =   6.8295625412310E-09
(PID.TID 0000.0001) %MON dynstat_uvel_sd              =   1.9764062475060E-03
(PID.TID 0000.0001) %MON dynstat_uvel_del2            =   3.1087443724141E-06
(PID.TID 0000.0001) %MON dynstat_vvel_max             =   3.7236080030149E-02
(PID.TID 0000.0001) %MON dynstat_vvel_min             =  -2.0872642832460E-02
(PID.TID 0000.0001) %MON dynstat_vvel_mean            =   1.6826806011503E-07
(PID.TID 0000.0001) %MON dynstat_vvel_sd              =   8.4903278471902E-04
(PID.TID 0000.0001) %MON dynstat_vvel_del2            =   2.1776643777822E-06
(PID.TID 0000.0001) %MON dynstat_wvel_max             =   2.4914156166508E-03
(PID.TID 0000.0001) %MON dynstat_wvel_min             =  -3.0702559714265E-03
(PID.TID 0000.0001) %MON dynstat_wvel_mean            =   5.2669276843747E-10
(PID.TID 0000.0001) %MON dynstat_wvel_sd              =   4.2210980555865E-05
(PID.TID 0000.0001) %MON dynstat_wvel_del2            =   1.5623281550294E-07
(PID.TID 0000.0001) %MON dynstat_theta_max            =   1.2000000000000E+00
(PID.TID 0000.0001) %MON dynstat_theta_min            =  -1.0000000000000E+00
(PID.TID 0000.0001) %MON dynstat_theta_mean           =   5.6476187635933E-01
(PID.TID 0000.0001) %MON dynstat_theta_sd             =   8.4877468175365E-01
(PID.TID 0000.0001) %MON dynstat_theta_del2           =   5.9992472931770E-06
(PID.TID 0000.0001) %MON dynstat_salt_max             =   3.4700000000000E+01
(PID.TID 0000.0001) %MON dynstat_salt_min             =   3.4000000000000E+01
(PID.TID 0000.0001) %MON dynstat_salt_mean            =   3.4497818859875E+01
(PID.TID 0000.0001) %MON dynstat_salt_sd              =   2.7005063451004E-01
(PID.TID 0000.0001) %MON dynstat_salt_del2            =   2.3780060629111E-06
(PID.TID 0000.0001) %MON advcfl_uvel_max              =   6.7884706205479E-03
(PID.TID 0000.0001) %MON advcfl_vvel_max              =   3.7236080030149E-03
(PID.TID 0000.0001) %MON advcfl_wvel_max              =   1.5351279857133E-02
(PID.TID 0000.0001) %MON advcfl_W_hf_max              =   1.5351279857133E-02
(PID.TID 0000.0001) %MON pe_b_mean                    =  -6.8104626918948E-01
(PID.TID 0000.0001) %MON ke_max                       =   2.1596621529496E-03
(PID.TID 0000.0001) %MON ke_mean                      =   2.2767937898655E-06
(PID.TID 0000.0001) %MON ke_vol                       =   4.6183250970642E+12
(PID.TID 0000.0001) // =======================================================
(PID.TID 0000.0001) // End MONITOR dynamic field statistics
(PID.TID 0000.0001) // =======================================================
(PID.TID 0000.0001) // =======================================================
(PID.TID 0000.0001) // Begin OBCS MONITOR field statistics
(PID.TID 0000.0001) // =======================================================
(PID.TID 0000.0001) %MON obc_N_vVel_max               =   1.0999638800404E-07
(PID.TID 0000.0001) %MON obc_N_vVel_min               =   1.0999638800404E-07
(PID.TID 0000.0001) %MON obc_N_vVel_mean              =   1.0999638800404E-07
(PID.TID 0000.0001) %MON obc_N_vVel_sd                =  -6.6264316038565E-28
(PID.TID 0000.0001) %MON obc_N_vVel_Int               =   7.2597616082666E+00
(PID.TID 0000.0001) // =======================================================
(PID.TID 0000.0001) // End OBCS MONITOR field statistics
(PID.TID 0000.0001) // =======================================================
 cg2d: Sum(rhs),rhsMax =   3.00492307965961E+00  4.53037199197261E+02
(PID.TID 0000.0001)      cg2d_init_res =   6.57619244286860E-06
(PID.TID 0000.0001)      cg2d_iters(min,last) =      -1      79
(PID.TID 0000.0001)      cg2d_last_res =   9.39844994393505E-12
(PID.TID 0000.0001) // =======================================================
(PID.TID 0000.0001) // Begin MONITOR dynamic field statistics
(PID.TID 0000.0001) // =======================================================
(PID.TID 0000.0001) %MON time_tsnumber                =                  1533
(PID.TID 0000.0001) %MON time_secondsf                =   1.5330000000000E+05
(PID.TID 0000.0001) %MON dynstat_eta_max              =   5.7997888817861E+00
(PID.TID 0000.0001) %MON dynstat_eta_min              =  -1.4163921883019E+01
(PID.TID 0000.0001) %MON dynstat_eta_mean             =  -2.5210035848374E+00
(PID.TID 0000.0001) %MON dynstat_eta_sd               =   4.9401950591181E+00
(PID.TID 0000.0001) %MON dynstat_eta_del2             =   1.9059696825506E-01
(PID.TID 0000.0001) %MON dynstat_uvel_max             =   1.5060773929198E-02
(PID.TID 0000.0001) %MON dynstat_uvel_min             =  -6.8017050558868E-02
(PID.TID 0000.0001) %MON dynstat_uvel_mean            =   6.8640455768773E-09
(PID.TID 0000.0001) %MON dynstat_uvel_sd              =   1.9805098628602E-03
(PID.TID 0000.0001) %MON dynstat_uvel_del2            =   3.1156807405453E-06
(PID.TID 0000.0001) %MON dynstat_vvel_max             =   3.7279015743815E-02
(PID.TID 0000.0001) %MON dynstat_vvel_min             =  -2.0919807154915E-02
(PID.TID 0000.0001) %MON dynstat_vvel_mean            =   1.6712093678821E-07
(PID.TID 0000.0001) %MON dynstat_vvel_sd              =   8.5060147913845E-04
(PID.TID 0000.0001) %MON dynstat_vvel_del2            =   2.1812384100418E-06
(PID.TID 0000.0001) %MON dynstat_wvel_max             =   2.4950206980920E-03
(PID.TID 0000.0001) %MON dynstat_wvel_min             =  -3.0726804375962E-03
(PID.TID 0000.0001) %MON dynstat_wvel_mean            =   5.2504053259495E-10
(PID.TID 0000.0001) %MON dynstat_wvel_sd              =   4.2275991609117E-05
(PID.TID 0000.0001) %MON dynstat_wvel_del2            =   1.5641720621261E-07
(PID.TID 0000.0001) %MON dynstat_theta_max            =   1.2000000000000E+00
(PID.TID 0000.0001) %MON dynstat_theta_min            =  -1.0000000000000E+00
(PID.TID 0000.0001) %MON dynstat_theta_mean           =   5.6476054072452E-01
(PID.TID 0000.0001) %MON dynstat_theta_sd             =   8.4877409884127E-01
(PID.TID 0000.0001) %MON dynstat_theta_del2           =   6.0089696008987E-06
(PID.TID 0000.0001) %MON dynstat_salt_max             =   3.4700000000000E+01
(PID.TID 0000.0001) %MON dynstat_salt_min             =   3.4000000000000E+01
(PID.TID 0000.0001) %MON dynstat_salt_mean            =   3.4497818325720E+01
(PID.TID 0000.0001) %MON dynstat_salt_sd              =   2.7005041693538E-01
(PID.TID 0000.0001) %MON dynstat_salt_del2            =   2.3818704790802E-06
(PID.TID 0000.0001) %MON advcfl_uvel_max              =   6.8017050558868E-03
(PID.TID 0000.0001) %MON advcfl_vvel_max              =   3.7279015743815E-03
(PID.TID 0000.0001) %MON advcfl_wvel_max              =   1.5363402187981E-02
(PID.TID 0000.0001) %MON advcfl_W_hf_max              =   1.5363402187981E-02
(PID.TID 0000.0001) %MON pe_b_mean                    =  -6.8104266705209E-01
(PID.TID 0000.0001) %MON ke_max                       =   2.1686281879932E-03
(PID.TID 0000.0001) %MON ke_mean                      =   2.2860930657099E-06
(PID.TID 0000.0001) %MON ke_vol                       =   4.6183251678228E+12
(PID.TID 0000.0001) // =======================================================
(PID.TID 0000.0001) // End MONITOR dynamic field statistics
(PID.TID 0000.0001) // =======================================================
(PID.TID 0000.0001) // =======================================================
(PID.TID 0000.0001) // Begin OBCS MONITOR field statistics
(PID.TID 0000.0001) // =======================================================
(PID.TID 0000.0001) %MON obc_N_vVel_max               =   1.0907373145773E-07
(PID.TID 0000.0001) %MON obc_N_vVel_min               =   1.0907373145773E-07
(PID.TID 0000.0001) %MON obc_N_vVel_mean              =   1.0907373145773E-07
(PID.TID 0000.0001) %MON obc_N_vVel_sd                =   2.1537182087496E-14
(PID.TID 0000.0001) %MON obc_N_vVel_Int               =   7.1988662762099E+00
(PID.TID 0000.0001) // =======================================================
(PID.TID 0000.0001) // End OBCS MONITOR field statistics
(PID.TID 0000.0001) // =======================================================
 cg2d: Sum(rhs),rhsMax =   3.00490898231460E+00  4.53037176285225E+02
(PID.TID 0000.0001)      cg2d_init_res =   6.58607889228586E-06
(PID.TID 0000.0001)      cg2d_iters(min,last) =      -1      79
(PID.TID 0000.0001)      cg2d_last_res =   9.41687804318561E-12
(PID.TID 0000.0001) // =======================================================
(PID.TID 0000.0001) // Begin MONITOR dynamic field statistics
(PID.TID 0000.0001) // =======================================================
(PID.TID 0000.0001) %MON time_tsnumber                =                  1534
(PID.TID 0000.0001) %MON time_secondsf                =   1.5340000000000E+05
(PID.TID 0000.0001) %MON dynstat_eta_max              =   5.7997922653799E+00
(PID.TID 0000.0001) %MON dynstat_eta_min              =  -1.4163893671126E+01
(PID.TID 0000.0001) %MON dynstat_eta_mean             =  -2.5209916302628E+00
(PID.TID 0000.0001) %MON dynstat_eta_sd               =   4.9401916106039E+00
(PID.TID 0000.0001) %MON dynstat_eta_del2             =   1.9059700425572E-01
(PID.TID 0000.0001) %MON dynstat_uvel_max             =   1.5091205475587E-02
(PID.TID 0000.0001) %MON dynstat_uvel_min             =  -6.8149481349874E-02
(PID.TID 0000.0001) %MON dynstat_uvel_mean            =   6.8969382157477E-09
(PID.TID 0000.0001) %MON dynstat_uvel_sd              =   1.9846191967214E-03
(PID.TID 0000.0001) %MON dynstat_uvel_del2            =   3.1226298852252E-06
(PID.TID 0000.0001) %MON dynstat_vvel_max             =   3.7321946336891E-02
(PID.TID 0000.0001) %MON dynstat_vvel_min             =  -2.0966978477430E-02
(PID.TID 0000.0001) %MON dynstat_vvel_mean            =   1.6564761877379E-07
(PID.TID 0000.0001) %MON dynstat_vvel_sd              =   8.5217250485207E-04
(PID.TID 0000.0001) %MON dynstat_vvel_del2            =   2.1848165907594E-06
(PID.TID 0000.0001) %MON dynstat_wvel_max             =   2.4986252472688E-03
(PID.TID 0000.0001) %MON dynstat_wvel_min             =  -3.0750798226744E-03
(PID.TID 0000.0001) %MON dynstat_wvel_mean            =   5.2372074207780E-10
(PID.TID 0000.0001) %MON dynstat_wvel_sd              =   4.2341356408377E-05
(PID.TID 0000.0001) %MON dynstat_wvel_del2            =   1.5660261958281E-07
(PID.TID 0000.0001) %MON dynstat_theta_max            =   1.2000000000000E+00
(PID.TID 0000.0001) %MON dynstat_theta_min            =  -1.0000000000000E+00
(PID.TID 0000.0001) %MON dynstat_theta_mean           =   5.6475920287250E-01
(PID.TID 0000.0001) %MON dynstat_theta_sd             =   8.4877351515352E-01
(PID.TID 0000.0001) %MON dynstat_theta_del2           =   6.0186998200968E-06
(PID.TID 0000.0001) %MON dynstat_salt_max             =   3.4700000000000E+01
(PID.TID 0000.0001) %MON dynstat_salt_min             =   3.4000000000000E+01
(PID.TID 0000.0001) %MON dynstat_salt_mean            =   3.4497817790679E+01
(PID.TID 0000.0001) %MON dynstat_salt_sd              =   2.7005019909028E-01
(PID.TID 0000.0001) %MON dynstat_salt_del2            =   2.3857380185727E-06
(PID.TID 0000.0001) %MON advcfl_uvel_max              =   6.8149481349874E-03
(PID.TID 0000.0001) %MON advcfl_vvel_max              =   3.7321946336891E-03
(PID.TID 0000.0001) %MON advcfl_wvel_max              =   1.5375399113372E-02
(PID.TID 0000.0001) %MON advcfl_W_hf_max              =   1.5375399113372E-02
(PID.TID 0000.0001) %MON pe_b_mean                    =  -6.8103905853609E-01
(PID.TID 0000.0001) %MON ke_max                       =   2.1776196576854E-03
(PID.TID 0000.0001) %MON ke_mean                      =   2.2954244476459E-06
(PID.TID 0000.0001) %MON ke_vol                       =   4.6183252387061E+12
(PID.TID 0000.0001) // =======================================================
(PID.TID 0000.0001) // End MONITOR dynamic field statistics
(PID.TID 0000.0001) // =======================================================
(PID.TID 0000.0001) // =======================================================
(PID.TID 0000.0001) // Begin OBCS MONITOR field statistics
(PID.TID 0000.0001) // =======================================================
(PID.TID 0000.0001) %MON obc_N_vVel_max               =   1.0781600546504E-07
(PID.TID 0000.0001) %MON obc_N_vVel_min               =   1.0781600546504E-07
(PID.TID 0000.0001) %MON obc_N_vVel_mean              =   1.0781600546504E-07
(PID.TID 0000.0001) %MON obc_N_vVel_sd                =   2.6851794490723E-14
(PID.TID 0000.0001) %MON obc_N_vVel_Int               =   7.1158563606926E+00
(PID.TID 0000.0001) // =======================================================
(PID.TID 0000.0001) // End OBCS MONITOR field statistics
(PID.TID 0000.0001) // =======================================================
 cg2d: Sum(rhs),rhsMax =   3.00489485944111E+00  4.53037153319585E+02
(PID.TID 0000.0001)      cg2d_init_res =   6.59601631057001E-06
(PID.TID 0000.0001)      cg2d_iters(min,last) =      -1      79
(PID.TID 0000.0001)      cg2d_last_res =   9.43508860820631E-12
(PID.TID 0000.0001) // =======================================================
(PID.TID 0000.0001) // Begin MONITOR dynamic field statistics
(PID.TID 0000.0001) // =======================================================
(PID.TID 0000.0001) %MON time_tsnumber                =                  1535
(PID.TID 0000.0001) %MON time_secondsf                =   1.5350000000000E+05
(PID.TID 0000.0001) %MON dynstat_eta_max              =   5.7997956554338E+00
(PID.TID 0000.0001) %MON dynstat_eta_min              =  -1.4163883331800E+01
(PID.TID 0000.0001) %MON dynstat_eta_mean             =  -2.5209796539738E+00
(PID.TID 0000.0001) %MON dynstat_eta_sd               =   4.9401881553420E+00
(PID.TID 0000.0001) %MON dynstat_eta_del2             =   1.9059704030791E-01
(PID.TID 0000.0001) %MON dynstat_uvel_max             =   1.5121663066543E-02
(PID.TID 0000.0001) %MON dynstat_uvel_min             =  -6.8281998627100E-02
(PID.TID 0000.0001) %MON dynstat_uvel_mean            =   6.9279206862445E-09
(PID.TID 0000.0001) %MON dynstat_uvel_sd              =   1.9887342450663E-03
(PID.TID 0000.0001) %MON dynstat_uvel_del2            =   3.1295918419448E-06
(PID.TID 0000.0001) %MON dynstat_vvel_max             =   3.7364871689459E-02
(PID.TID 0000.0001) %MON dynstat_vvel_min             =  -2.1014155777916E-02
(PID.TID 0000.0001) %MON dynstat_vvel_mean            =   1.6389471883541E-07
(PID.TID 0000.0001) %MON dynstat_vvel_sd              =   8.5374585872580E-04
(PID.TID 0000.0001) %MON dynstat_vvel_del2            =   2.1883988848780E-06
(PID.TID 0000.0001) %MON dynstat_wvel_max             =   2.5022292391062E-03
(PID.TID 0000.0001) %MON dynstat_wvel_min             =  -3.0774540159847E-03
(PID.TID 0000.0001) %MON dynstat_wvel_mean            =   5.2277455783546E-10
(PID.TID 0000.0001) %MON dynstat_wvel_sd              =   4.2407065488838E-05
(PID.TID 0000.0001) %MON dynstat_wvel_del2            =   1.5678898223485E-07
(PID.TID 0000.0001) %MON dynstat_theta_max            =   1.2000000000000E+00
(PID.TID 0000.0001) %MON dynstat_theta_min            =  -1.0000000000000E+00
(PID.TID 0000.0001) %MON dynstat_theta_mean           =   5.6475786280154E-01
(PID.TID 0000.0001) %MON dynstat_theta_sd             =   8.4877293068965E-01
(PID.TID 0000.0001) %MON dynstat_theta_del2           =   6.0284397283819E-06
(PID.TID 0000.0001) %MON dynstat_salt_max             =   3.4700000000000E+01
(PID.TID 0000.0001) %MON dynstat_salt_min             =   3.4000000000000E+01
(PID.TID 0000.0001) %MON dynstat_salt_mean            =   3.4497817254750E+01
(PID.TID 0000.0001) %MON dynstat_salt_sd              =   2.7004998097485E-01
(PID.TID 0000.0001) %MON dynstat_salt_del2            =   2.3896094601971E-06
(PID.TID 0000.0001) %MON advcfl_uvel_max              =   6.8281998627100E-03
(PID.TID 0000.0001) %MON advcfl_vvel_max              =   3.7364871689459E-03
(PID.TID 0000.0001) %MON advcfl_wvel_max              =   1.5387270079924E-02
(PID.TID 0000.0001) %MON advcfl_W_hf_max              =   1.5387270079924E-02
(PID.TID 0000.0001) %MON pe_b_mean                    =  -6.8103544357915E-01
(PID.TID 0000.0001) %MON ke_max                       =   2.1866365363411E-03
(PID.TID 0000.0001) %MON ke_mean                      =   2.3047880053157E-06
(PID.TID 0000.0001) %MON ke_vol                       =   4.6183253097162E+12
(PID.TID 0000.0001) // =======================================================
(PID.TID 0000.0001) // End MONITOR dynamic field statistics
(PID.TID 0000.0001) // =======================================================
(PID.TID 0000.0001) // =======================================================
(PID.TID 0000.0001) // Begin OBCS MONITOR field statistics
(PID.TID 0000.0001) // =======================================================
(PID.TID 0000.0001) %MON obc_N_vVel_max               =   1.0626305314494E-07
(PID.TID 0000.0001) %MON obc_N_vVel_min               =   1.0626305314493E-07
(PID.TID 0000.0001) %MON obc_N_vVel_mean              =   1.0626305314494E-07
(PID.TID 0000.0001) %MON obc_N_vVel_sd                =  -9.9869790600980E-28
(PID.TID 0000.0001) %MON obc_N_vVel_Int               =   7.0133615075659E+00
(PID.TID 0000.0001) // =======================================================
(PID.TID 0000.0001) // End OBCS MONITOR field statistics
(PID.TID 0000.0001) // =======================================================
 cg2d: Sum(rhs),rhsMax =   3.00488071067472E+00  4.53037130302223E+02
(PID.TID 0000.0001)      cg2d_init_res =   6.60592005279208E-06
(PID.TID 0000.0001)      cg2d_iters(min,last) =      -1      79
(PID.TID 0000.0001)      cg2d_last_res =   9.45370961432814E-12
(PID.TID 0000.0001) // =======================================================
(PID.TID 0000.0001) // Begin MONITOR dynamic field statistics
(PID.TID 0000.0001) // =======================================================
(PID.TID 0000.0001) %MON time_tsnumber                =                  1536
(PID.TID 0000.0001) %MON time_secondsf                =   1.5360000000000E+05
(PID.TID 0000.0001) %MON dynstat_eta_max              =   5.7997990524618E+00
(PID.TID 0000.0001) %MON dynstat_eta_min              =  -1.4163879890878E+01
(PID.TID 0000.0001) %MON dynstat_eta_mean             =  -2.5209676556751E+00
(PID.TID 0000.0001) %MON dynstat_eta_sd               =   4.9401846932734E+00
(PID.TID 0000.0001) %MON dynstat_eta_del2             =   1.9059707641138E-01
(PID.TID 0000.0001) %MON dynstat_uvel_max             =   1.5152147197213E-02
(PID.TID 0000.0001) %MON dynstat_uvel_min             =  -6.8414602443411E-02
(PID.TID 0000.0001) %MON dynstat_uvel_mean            =   6.9567275960885E-09
(PID.TID 0000.0001) %MON dynstat_uvel_sd              =   1.9928550034786E-03
(PID.TID 0000.0001) %MON dynstat_uvel_del2            =   3.1365666197777E-06
(PID.TID 0000.0001) %MON dynstat_vvel_max             =   3.7407791681717E-02
(PID.TID 0000.0001) %MON dynstat_vvel_min             =  -2.1061338046056E-02
(PID.TID 0000.0001) %MON dynstat_vvel_mean            =   1.6191450478230E-07
(PID.TID 0000.0001) %MON dynstat_vvel_sd              =   8.5532153551625E-04
(PID.TID 0000.0001) %MON dynstat_vvel_del2            =   2.1919852724722E-06
(PID.TID 0000.0001) %MON dynstat_wvel_max             =   2.5058326485064E-03
(PID.TID 0000.0001) %MON dynstat_wvel_min             =  -3.0798031442496E-03
(PID.TID 0000.0001) %MON dynstat_wvel_mean            =   5.2223714356265E-10
(PID.TID 0000.0001) %MON dynstat_wvel_sd              =   4.2473094743291E-05
(PID.TID 0000.0001) %MON dynstat_wvel_del2            =   1.5697617156595E-07
(PID.TID 0000.0001) %MON dynstat_theta_max            =   1.2000000000000E+00
(PID.TID 0000.0001) %MON dynstat_theta_min            =  -1.0000000000000E+00
(PID.TID 0000.0001) %MON dynstat_theta_mean           =   5.6475652050995E-01
(PID.TID 0000.0001) %MON dynstat_theta_sd             =   8.4877234544817E-01
(PID.TID 0000.0001) %MON dynstat_theta_del2           =   6.0381891479102E-06
(PID.TID 0000.0001) %MON dynstat_salt_max             =   3.4700000000000E+01
(PID.TID 0000.0001) %MON dynstat_salt_min             =   3.4000000000000E+01
(PID.TID 0000.0001) %MON dynstat_salt_mean            =   3.4497816717933E+01
(PID.TID 0000.0001) %MON dynstat_salt_sd              =   2.7004976258861E-01
(PID.TID 0000.0001) %MON dynstat_salt_del2            =   2.3934848206844E-06
(PID.TID 0000.0001) %MON advcfl_uvel_max              =   6.8414602443411E-03
(PID.TID 0000.0001) %MON advcfl_vvel_max              =   3.7407791681717E-03
(PID.TID 0000.0001) %MON advcfl_wvel_max              =   1.5399015721248E-02
(PID.TID 0000.0001) %MON advcfl_W_hf_max              =   1.5399015721248E-02
(PID.TID 0000.0001) %MON pe_b_mean                    =  -6.8103182213044E-01
(PID.TID 0000.0001) %MON ke_max                       =   2.1956787977220E-03
(PID.TID 0000.0001) %MON ke_mean                      =   2.3141838058175E-06
(PID.TID 0000.0001) %MON ke_vol                       =   4.6183253808554E+12
(PID.TID 0000.0001) // =======================================================
(PID.TID 0000.0001) // End MONITOR dynamic field statistics
(PID.TID 0000.0001) // =======================================================
(PID.TID 0000.0001) // =======================================================
(PID.TID 0000.0001) // Begin OBCS MONITOR field statistics
(PID.TID 0000.0001) // =======================================================
(PID.TID 0000.0001) %MON obc_N_vVel_max               =   1.0446075080722E-07
(PID.TID 0000.0001) %MON obc_N_vVel_min               =   1.0446075080722E-07
(PID.TID 0000.0001) %MON obc_N_vVel_mean              =   1.0446075080722E-07
(PID.TID 0000.0001) %MON obc_N_vVel_sd                =   1.7038216254096E-14
(PID.TID 0000.0001) %MON obc_N_vVel_Int               =   6.8944095532764E+00
(PID.TID 0000.0001) // =======================================================
(PID.TID 0000.0001) // End OBCS MONITOR field statistics
(PID.TID 0000.0001) // =======================================================
 cg2d: Sum(rhs),rhsMax =   3.00486653571150E+00  4.53037107235980E+02
(PID.TID 0000.0001)      cg2d_init_res =   6.61581852472249E-06
(PID.TID 0000.0001)      cg2d_iters(min,last) =      -1      79
(PID.TID 0000.0001)      cg2d_last_res =   9.47239056529455E-12
(PID.TID 0000.0001) // =======================================================
(PID.TID 0000.0001) // Begin MONITOR dynamic field statistics
(PID.TID 0000.0001) // =======================================================
(PID.TID 0000.0001) %MON time_tsnumber                =                  1537
(PID.TID 0000.0001) %MON time_secondsf                =   1.5370000000000E+05
(PID.TID 0000.0001) %MON dynstat_eta_max              =   5.7998024568615E+00
(PID.TID 0000.0001) %MON dynstat_eta_min              =  -1.4163876442120E+01
(PID.TID 0000.0001) %MON dynstat_eta_mean             =  -2.5209556351277E+00
(PID.TID 0000.0001) %MON dynstat_eta_sd               =   4.9401812243700E+00
(PID.TID 0000.0001) %MON dynstat_eta_del2             =   1.9059711256613E-01
(PID.TID 0000.0001) %MON dynstat_uvel_max             =   1.5182658105305E-02
(PID.TID 0000.0001) %MON dynstat_uvel_min             =  -6.8547292853175E-02
(PID.TID 0000.0001) %MON dynstat_uvel_mean            =   6.9831609617629E-09
(PID.TID 0000.0001) %MON dynstat_uvel_sd              =   1.9969814677566E-03
(PID.TID 0000.0001) %MON dynstat_uvel_del2            =   3.1435542269881E-06
(PID.TID 0000.0001) %MON dynstat_vvel_max             =   3.7450706194435E-02
(PID.TID 0000.0001) %MON dynstat_vvel_min             =  -2.1108524257450E-02
(PID.TID 0000.0001) %MON dynstat_vvel_mean            =   1.5976364356361E-07
(PID.TID 0000.0001) %MON dynstat_vvel_sd              =   8.5689952473148E-04
(PID.TID 0000.0001) %MON dynstat_vvel_del2            =   2.1955757186936E-06
(PID.TID 0000.0001) %MON dynstat_wvel_max             =   2.5094354505780E-03
(PID.TID 0000.0001) %MON dynstat_wvel_min             =  -3.0821272376221E-03
(PID.TID 0000.0001) %MON dynstat_wvel_mean            =   5.2213209733377E-10
(PID.TID 0000.0001) %MON dynstat_wvel_sd              =   4.2539407324292E-05
(PID.TID 0000.0001) %MON dynstat_wvel_del2            =   1.5716403299535E-07
(PID.TID 0000.0001) %MON dynstat_theta_max            =   1.2000000000000E+00
(PID.TID 0000.0001) %MON dynstat_theta_min            =  -1.0000000000000E+00
(PID.TID 0000.0001) %MON dynstat_theta_mean           =   5.6475517599609E-01
(PID.TID 0000.0001) %MON dynstat_theta_sd             =   8.4877175942748E-01
(PID.TID 0000.0001) %MON dynstat_theta_del2           =   6.0479483101770E-06
(PID.TID 0000.0001) %MON dynstat_salt_max             =   3.4700000000000E+01
(PID.TID 0000.0001) %MON dynstat_salt_min             =   3.4000000000000E+01
(PID.TID 0000.0001) %MON dynstat_salt_mean            =   3.4497816180226E+01
(PID.TID 0000.0001) %MON dynstat_salt_sd              =   2.7004954393133E-01
(PID.TID 0000.0001) %MON dynstat_salt_del2            =   2.3973640936110E-06
(PID.TID 0000.0001) %MON advcfl_uvel_max              =   6.8547292853175E-03
(PID.TID 0000.0001) %MON advcfl_vvel_max              =   3.7450706194435E-03
(PID.TID 0000.0001) %MON advcfl_wvel_max              =   1.5410636188110E-02
(PID.TID 0000.0001) %MON advcfl_W_hf_max              =   1.5410636188110E-02
(PID.TID 0000.0001) %MON pe_b_mean                    =  -6.8102819415146E-01
(PID.TID 0000.0001) %MON ke_max                       =   2.2047464142876E-03
(PID.TID 0000.0001) %MON ke_mean                      =   2.3236119121816E-06
(PID.TID 0000.0001) %MON ke_vol                       =   4.6183254521253E+12
(PID.TID 0000.0001) // =======================================================
(PID.TID 0000.0001) // End MONITOR dynamic field statistics
(PID.TID 0000.0001) // =======================================================
(PID.TID 0000.0001) // =======================================================
(PID.TID 0000.0001) // Begin OBCS MONITOR field statistics
(PID.TID 0000.0001) // =======================================================
(PID.TID 0000.0001) %MON obc_N_vVel_max               =   1.0245992295288E-07
(PID.TID 0000.0001) %MON obc_N_vVel_min               =   1.0245992295288E-07
(PID.TID 0000.0001) %MON obc_N_vVel_mean              =   1.0245992295288E-07
(PID.TID 0000.0001) %MON obc_N_vVel_sd                =   5.4750994875343E-15
(PID.TID 0000.0001) %MON obc_N_vVel_Int               =   6.7623549148901E+00
(PID.TID 0000.0001) // =======================================================
(PID.TID 0000.0001) // End OBCS MONITOR field statistics
(PID.TID 0000.0001) // =======================================================
 cg2d: Sum(rhs),rhsMax =   3.00485233431441E+00  4.53037084124542E+02
(PID.TID 0000.0001)      cg2d_init_res =   6.62572537761473E-06
(PID.TID 0000.0001)      cg2d_iters(min,last) =      -1      79
(PID.TID 0000.0001)      cg2d_last_res =   9.49117325509651E-12
(PID.TID 0000.0001) // =======================================================
(PID.TID 0000.0001) // Begin MONITOR dynamic field statistics
(PID.TID 0000.0001) // =======================================================
(PID.TID 0000.0001) %MON time_tsnumber                =                  1538
(PID.TID 0000.0001) %MON time_secondsf                =   1.5380000000000E+05
(PID.TID 0000.0001) %MON dynstat_eta_max              =   5.7998058689427E+00
(PID.TID 0000.0001) %MON dynstat_eta_min              =  -1.4163872985354E+01
(PID.TID 0000.0001) %MON dynstat_eta_mean             =  -2.5209435921530E+00
(PID.TID 0000.0001) %MON dynstat_eta_sd               =   4.9401777486243E+00
(PID.TID 0000.0001) %MON dynstat_eta_del2             =   1.9059714877230E-01
(PID.TID 0000.0001) %MON dynstat_uvel_max             =   1.5213195718790E-02
(PID.TID 0000.0001) %MON dynstat_uvel_min             =  -6.8680069910563E-02
(PID.TID 0000.0001) %MON dynstat_uvel_mean            =   7.0070618457122E-09
(PID.TID 0000.0001) %MON dynstat_uvel_sd              =   2.0011136340424E-03
(PID.TID 0000.0001) %MON dynstat_uvel_del2            =   3.1505546732336E-06
(PID.TID 0000.0001) %MON dynstat_vvel_max             =   3.7493615099963E-02
(PID.TID 0000.0001) %MON dynstat_vvel_min             =  -2.1155713356848E-02
(PID.TID 0000.0001) %MON dynstat_vvel_mean            =   1.5750190547720E-07
(PID.TID 0000.0001) %MON dynstat_vvel_sd              =   8.5847981217562E-04
(PID.TID 0000.0001) %MON dynstat_vvel_del2            =   2.1991701802711E-06
(PID.TID 0000.0001) %MON dynstat_wvel_max             =   2.5130376201168E-03
(PID.TID 0000.0001) %MON dynstat_wvel_min             =  -3.0844261877020E-03
(PID.TID 0000.0001) %MON dynstat_wvel_mean            =   5.2247337336254E-10
(PID.TID 0000.0001) %MON dynstat_wvel_sd              =   4.2605956397520E-05
(PID.TID 0000.0001) %MON dynstat_wvel_del2            =   1.5735239658047E-07
(PID.TID 0000.0001) %MON dynstat_theta_max            =   1.2000000000000E+00
(PID.TID 0000.0001) %MON dynstat_theta_min            =  -1.0000000000000E+00
(PID.TID 0000.0001) %MON dynstat_theta_mean           =   5.6475382925837E-01
(PID.TID 0000.0001) %MON dynstat_theta_sd             =   8.4877117262624E-01
(PID.TID 0000.0001) %MON dynstat_theta_del2           =   6.0577172814676E-06
(PID.TID 0000.0001) %MON dynstat_salt_max             =   3.4700000000000E+01
(PID.TID 0000.0001) %MON dynstat_salt_min             =   3.4000000000000E+01
(PID.TID 0000.0001) %MON dynstat_salt_mean            =   3.4497815641629E+01
(PID.TID 0000.0001) %MON dynstat_salt_sd              =   2.7004932500261E-01
(PID.TID 0000.0001) %MON dynstat_salt_del2            =   2.4012472803819E-06
(PID.TID 0000.0001) %MON advcfl_uvel_max              =   6.8680069910563E-03
(PID.TID 0000.0001) %MON advcfl_vvel_max              =   3.7493615099963E-03
(PID.TID 0000.0001) %MON advcfl_wvel_max              =   1.5422130938510E-02
(PID.TID 0000.0001) %MON advcfl_W_hf_max              =   1.5422130938510E-02
(PID.TID 0000.0001) %MON pe_b_mean                    =  -6.8102455961660E-01
(PID.TID 0000.0001) %MON ke_max                       =   2.2138393574528E-03
(PID.TID 0000.0001) %MON ke_mean                      =   2.3330723849108E-06
(PID.TID 0000.0001) %MON ke_vol                       =   4.6183255235273E+12
(PID.TID 0000.0001) // =======================================================
(PID.TID 0000.0001) // End MONITOR dynamic field statistics
(PID.TID 0000.0001) // =======================================================
(PID.TID 0000.0001) // =======================================================
(PID.TID 0000.0001) // Begin OBCS MONITOR field statistics
(PID.TID 0000.0001) // =======================================================
(PID.TID 0000.0001) %MON obc_N_vVel_max               =   1.0031518551636E-07
(PID.TID 0000.0001) %MON obc_N_vVel_min               =   1.0031518551636E-07
(PID.TID 0000.0001) %MON obc_N_vVel_mean              =   1.0031518551636E-07
(PID.TID 0000.0001) %MON obc_N_vVel_sd                =  -6.1688922788283E-28
(PID.TID 0000.0001) %MON obc_N_vVel_Int               =   6.6208022440797E+00
(PID.TID 0000.0001) // =======================================================
(PID.TID 0000.0001) // End OBCS MONITOR field statistics
(PID.TID 0000.0001) // =======================================================
 cg2d: Sum(rhs),rhsMax =   3.00483810631694E+00  4.53037060972381E+02
(PID.TID 0000.0001)      cg2d_init_res =   6.63562532894192E-06
(PID.TID 0000.0001)      cg2d_iters(min,last) =      -1      79
(PID.TID 0000.0001)      cg2d_last_res =   9.51002612876118E-12
(PID.TID 0000.0001) // =======================================================
(PID.TID 0000.0001) // Begin MONITOR dynamic field statistics
(PID.TID 0000.0001) // =======================================================
(PID.TID 0000.0001) %MON time_tsnumber                =                  1539
(PID.TID 0000.0001) %MON time_secondsf                =   1.5390000000000E+05
(PID.TID 0000.0001) %MON dynstat_eta_max              =   5.7998092889068E+00
(PID.TID 0000.0001) %MON dynstat_eta_min              =  -1.4163869520514E+01
(PID.TID 0000.0001) %MON dynstat_eta_mean             =  -2.5209315266364E+00
(PID.TID 0000.0001) %MON dynstat_eta_sd               =   4.9401742660517E+00
(PID.TID 0000.0001) %MON dynstat_eta_del2             =   1.9059718502996E-01
(PID.TID 0000.0001) %MON dynstat_uvel_max             =   1.5243759951594E-02
(PID.TID 0000.0001) %MON dynstat_uvel_min             =  -6.8812933670696E-02
(PID.TID 0000.0001) %MON dynstat_uvel_mean            =   7.0283396632564E-09
(PID.TID 0000.0001) %MON dynstat_uvel_sd              =   2.0052514984945E-03
(PID.TID 0000.0001) %MON dynstat_uvel_del2            =   3.1575679682368E-06
(PID.TID 0000.0001) %MON dynstat_vvel_max             =   3.7536518281229E-02
(PID.TID 0000.0001) %MON dynstat_vvel_min             =  -2.1202904274956E-02
(PID.TID 0000.0001) %MON dynstat_vvel_mean            =   1.5519081119196E-07
(PID.TID 0000.0001) %MON dynstat_vvel_sd              =   8.6006238036712E-04
(PID.TID 0000.0001) %MON dynstat_vvel_del2            =   2.2027686083891E-06
(PID.TID 0000.0001) %MON dynstat_wvel_max             =   2.5166391319627E-03
(PID.TID 0000.0001) %MON dynstat_wvel_min             =  -3.0866998872986E-03
(PID.TID 0000.0001) %MON dynstat_wvel_mean            =   5.2326553884188E-10
(PID.TID 0000.0001) %MON dynstat_wvel_sd              =   4.2672687159426E-05
(PID.TID 0000.0001) %MON dynstat_wvel_del2            =   1.5754108862193E-07
(PID.TID 0000.0001) %MON dynstat_theta_max            =   1.2000000000000E+00
(PID.TID 0000.0001) %MON dynstat_theta_min            =  -1.0000000000000E+00
(PID.TID 0000.0001) %MON dynstat_theta_mean           =   5.6475248029526E-01
(PID.TID 0000.0001) %MON dynstat_theta_sd             =   8.4877058504324E-01
(PID.TID 0000.0001) %MON dynstat_theta_del2           =   6.0674962138651E-06
(PID.TID 0000.0001) %MON dynstat_salt_max             =   3.4700000000000E+01
(PID.TID 0000.0001) %MON dynstat_salt_min             =   3.4000000000000E+01
(PID.TID 0000.0001) %MON dynstat_salt_mean            =   3.4497815102142E+01
(PID.TID 0000.0001) %MON dynstat_salt_sd              =   2.7004910580234E-01
(PID.TID 0000.0001) %MON dynstat_salt_del2            =   2.4051343864283E-06
(PID.TID 0000.0001) %MON advcfl_uvel_max              =   6.8812933670696E-03
(PID.TID 0000.0001) %MON advcfl_vvel_max              =   3.7536518281229E-03
(PID.TID 0000.0001) %MON advcfl_wvel_max              =   1.5433499436493E-02
(PID.TID 0000.0001) %MON advcfl_W_hf_max              =   1.5433499436493E-02
(PID.TID 0000.0001) %MON pe_b_mean                    =  -6.8102091851348E-01
(PID.TID 0000.0001) %MON ke_max                       =   2.2229575977392E-03
(PID.TID 0000.0001) %MON ke_mean                      =   2.3425652816743E-06
(PID.TID 0000.0001) %MON ke_vol                       =   4.6183255950626E+12
(PID.TID 0000.0001) // =======================================================
(PID.TID 0000.0001) // End MONITOR dynamic field statistics
(PID.TID 0000.0001) // =======================================================
(PID.TID 0000.0001) // =======================================================
(PID.TID 0000.0001) // Begin OBCS MONITOR field statistics
(PID.TID 0000.0001) // =======================================================
(PID.TID 0000.0001) %MON obc_N_vVel_max               =   9.8083676745018E-08
(PID.TID 0000.0001) %MON obc_N_vVel_min               =   9.8083676745015E-08
(PID.TID 0000.0001) %MON obc_N_vVel_mean              =   9.8083676745018E-08
(PID.TID 0000.0001) %MON obc_N_vVel_sd                =  -6.2004467150372E-28
(PID.TID 0000.0001) %MON obc_N_vVel_Int               =   6.4735226651712E+00
(PID.TID 0000.0001) // =======================================================
(PID.TID 0000.0001) // End OBCS MONITOR field statistics
(PID.TID 0000.0001) // =======================================================
 cg2d: Sum(rhs),rhsMax =   3.00482385162576E+00  4.53037037784578E+02
(PID.TID 0000.0001)      cg2d_init_res =   6.64551362610780E-06
(PID.TID 0000.0001)      cg2d_iters(min,last) =      -1      79
(PID.TID 0000.0001)      cg2d_last_res =   9.52893481811982E-12
(PID.TID 0000.0001) // =======================================================
(PID.TID 0000.0001) // Begin MONITOR dynamic field statistics
(PID.TID 0000.0001) // =======================================================
(PID.TID 0000.0001) %MON time_tsnumber                =                  1540
(PID.TID 0000.0001) %MON time_secondsf                =   1.5400000000000E+05
(PID.TID 0000.0001) %MON dynstat_eta_max              =   5.7998127168603E+00
(PID.TID 0000.0001) %MON dynstat_eta_min              =  -1.4163866047655E+01
(PID.TID 0000.0001) %MON dynstat_eta_mean             =  -2.5209194385277E+00
(PID.TID 0000.0001) %MON dynstat_eta_sd               =   4.9401707766899E+00
(PID.TID 0000.0001) %MON dynstat_eta_del2             =   1.9059722133932E-01
(PID.TID 0000.0001) %MON dynstat_uvel_max             =   1.5274350698070E-02
(PID.TID 0000.0001) %MON dynstat_uvel_min             =  -6.8945884190569E-02
(PID.TID 0000.0001) %MON dynstat_uvel_mean            =   7.0469605947068E-09
(PID.TID 0000.0001) %MON dynstat_uvel_sd              =   2.0093950572888E-03
(PID.TID 0000.0001) %MON dynstat_uvel_del2            =   3.1645941214754E-06
(PID.TID 0000.0001) %MON dynstat_vvel_max             =   3.7579415617459E-02
(PID.TID 0000.0001) %MON dynstat_vvel_min             =  -2.1250095933022E-02
(PID.TID 0000.0001) %MON dynstat_vvel_mean            =   1.5289224795465E-07
(PID.TID 0000.0001) %MON dynstat_vvel_sd              =   8.6164720934291E-04
(PID.TID 0000.0001) %MON dynstat_vvel_del2            =   2.2063709514909E-06
(PID.TID 0000.0001) %MON dynstat_wvel_max             =   2.5202399611725E-03
(PID.TID 0000.0001) %MON dynstat_wvel_min             =  -3.0889482307077E-03
(PID.TID 0000.0001) %MON dynstat_wvel_mean            =   5.2450310676862E-10
(PID.TID 0000.0001) %MON dynstat_wvel_sd              =   4.2739539512760E-05
(PID.TID 0000.0001) %MON dynstat_wvel_del2            =   1.5772994347891E-07
(PID.TID 0000.0001) %MON dynstat_theta_max            =   1.2000000000000E+00
(PID.TID 0000.0001) %MON dynstat_theta_min            =  -1.0000000000000E+00
(PID.TID 0000.0001) %MON dynstat_theta_mean           =   5.6475112910527E-01
(PID.TID 0000.0001) %MON dynstat_theta_sd             =   8.4876999667836E-01
(PID.TID 0000.0001) %MON dynstat_theta_del2           =   6.0772850360451E-06
(PID.TID 0000.0001) %MON dynstat_salt_max             =   3.4700000000000E+01
(PID.TID 0000.0001) %MON dynstat_salt_min             =   3.4000000000000E+01
(PID.TID 0000.0001) %MON dynstat_salt_mean            =   3.4497814561763E+01
(PID.TID 0000.0001) %MON dynstat_salt_sd              =   2.7004888633054E-01
(PID.TID 0000.0001) %MON dynstat_salt_del2            =   2.4090254195379E-06
(PID.TID 0000.0001) %MON advcfl_uvel_max              =   6.8945884190569E-03
(PID.TID 0000.0001) %MON advcfl_vvel_max              =   3.7579415617459E-03
(PID.TID 0000.0001) %MON advcfl_wvel_max              =   1.5444741153538E-02
(PID.TID 0000.0001) %MON advcfl_W_hf_max              =   1.5444741153538E-02
(PID.TID 0000.0001) %MON pe_b_mean                    =  -6.8101727084295E-01
(PID.TID 0000.0001) %MON ke_max                       =   2.2321011047308E-03
(PID.TID 0000.0001) %MON ke_mean                      =   2.3520906579741E-06
(PID.TID 0000.0001) %MON ke_vol                       =   4.6183256667318E+12
(PID.TID 0000.0001) // =======================================================
(PID.TID 0000.0001) // End MONITOR dynamic field statistics
(PID.TID 0000.0001) // =======================================================
(PID.TID 0000.0001) // =======================================================
(PID.TID 0000.0001) // Begin OBCS MONITOR field statistics
(PID.TID 0000.0001) // =======================================================
(PID.TID 0000.0001) %MON obc_N_vVel_max               =   9.5823777506525E-08
(PID.TID 0000.0001) %MON obc_N_vVel_min               =   9.5823777506522E-08
(PID.TID 0000.0001) %MON obc_N_vVel_mean              =   9.5823777506522E-08
(PID.TID 0000.0001) %MON obc_N_vVel_sd                =   2.7404298600227E-14
(PID.TID 0000.0001) %MON obc_N_vVel_Int               =   6.3243693154305E+00
(PID.TID 0000.0001) // =======================================================
(PID.TID 0000.0001) // End OBCS MONITOR field statistics
(PID.TID 0000.0001) // =======================================================
 cg2d: Sum(rhs),rhsMax =   3.00480957022213E+00  4.53037014566676E+02
(PID.TID 0000.0001)      cg2d_init_res =   6.65538922034132E-06
(PID.TID 0000.0001)      cg2d_iters(min,last) =      -1      79
(PID.TID 0000.0001)      cg2d_last_res =   9.54789407895253E-12
(PID.TID 0000.0001) // =======================================================
(PID.TID 0000.0001) // Begin MONITOR dynamic field statistics
(PID.TID 0000.0001) // =======================================================
(PID.TID 0000.0001) %MON time_tsnumber                =                  1541
(PID.TID 0000.0001) %MON time_secondsf                =   1.5410000000000E+05
(PID.TID 0000.0001) %MON dynstat_eta_max              =   5.7998161527956E+00
(PID.TID 0000.0001) %MON dynstat_eta_min              =  -1.4163862566934E+01
(PID.TID 0000.0001) %MON dynstat_eta_mean             =  -2.5209073278422E+00
(PID.TID 0000.0001) %MON dynstat_eta_sd               =   4.9401672805955E+00
(PID.TID 0000.0001) %MON dynstat_eta_del2             =   1.9059725770052E-01
(PID.TID 0000.0001) %MON dynstat_uvel_max             =   1.5304967844182E-02
(PID.TID 0000.0001) %MON dynstat_uvel_min             =  -6.9078921528547E-02
(PID.TID 0000.0001) %MON dynstat_uvel_mean            =   7.0629504084395E-09
(PID.TID 0000.0001) %MON dynstat_uvel_sd              =   2.0135443066136E-03
(PID.TID 0000.0001) %MON dynstat_uvel_del2            =   3.1716331425902E-06
(PID.TID 0000.0001) %MON dynstat_vvel_max             =   3.7622306985731E-02
(PID.TID 0000.0001) %MON dynstat_vvel_min             =  -2.1297287242410E-02
(PID.TID 0000.0001) %MON dynstat_vvel_mean            =   1.5066708989511E-07
(PID.TID 0000.0001) %MON dynstat_vvel_sd              =   8.6323427746742E-04
(PID.TID 0000.0001) %MON dynstat_vvel_del2            =   2.2099771581847E-06
(PID.TID 0000.0001) %MON dynstat_wvel_max             =   2.5238400827213E-03
(PID.TID 0000.0001) %MON dynstat_wvel_min             =  -3.0911711136665E-03
(PID.TID 0000.0001) %MON dynstat_wvel_mean            =   5.2617056232748E-10
(PID.TID 0000.0001) %MON dynstat_wvel_sd              =   4.2806450709100E-05
(PID.TID 0000.0001) %MON dynstat_wvel_del2            =   1.5791881255974E-07
(PID.TID 0000.0001) %MON dynstat_theta_max            =   1.2000000000000E+00
(PID.TID 0000.0001) %MON dynstat_theta_min            =  -1.0000000000000E+00
(PID.TID 0000.0001) %MON dynstat_theta_mean           =   5.6474977568698E-01
(PID.TID 0000.0001) %MON dynstat_theta_sd             =   8.4876940753188E-01
(PID.TID 0000.0001) %MON dynstat_theta_del2           =   6.0870848541992E-06
(PID.TID 0000.0001) %MON dynstat_salt_max             =   3.4700000000000E+01
(PID.TID 0000.0001) %MON dynstat_salt_min             =   3.4000000000000E+01
(PID.TID 0000.0001) %MON dynstat_salt_mean            =   3.4497814020493E+01
(PID.TID 0000.0001) %MON dynstat_salt_sd              =   2.7004866658726E-01
(PID.TID 0000.0001) %MON dynstat_salt_del2            =   2.4129208173100E-06
(PID.TID 0000.0001) %MON advcfl_uvel_max              =   6.9078921528547E-03
(PID.TID 0000.0001) %MON advcfl_vvel_max              =   3.7622306985731E-03
(PID.TID 0000.0001) %MON advcfl_wvel_max              =   1.5455855568332E-02
(PID.TID 0000.0001) %MON advcfl_W_hf_max              =   1.5455855568332E-02
(PID.TID 0000.0001) %MON pe_b_mean                    =  -6.8101361661878E-01
(PID.TID 0000.0001) %MON ke_max                       =   2.2412698470297E-03
(PID.TID 0000.0001) %MON ke_mean                      =   2.3616485678151E-06
(PID.TID 0000.0001) %MON ke_vol                       =   4.6183257385351E+12
(PID.TID 0000.0001) // =======================================================
(PID.TID 0000.0001) // End MONITOR dynamic field statistics
(PID.TID 0000.0001) // =======================================================
(PID.TID 0000.0001) // =======================================================
(PID.TID 0000.0001) // Begin OBCS MONITOR field statistics
(PID.TID 0000.0001) // =======================================================
(PID.TID 0000.0001) %MON obc_N_vVel_max               =   9.3593810013735E-08
(PID.TID 0000.0001) %MON obc_N_vVel_min               =   9.3593810013733E-08
(PID.TID 0000.0001) %MON obc_N_vVel_mean              =   9.3593810013733E-08
(PID.TID 0000.0001) %MON obc_N_vVel_sd                =   1.6568753574633E-14
(PID.TID 0000.0001) %MON obc_N_vVel_Int               =   6.1771914609063E+00
(PID.TID 0000.0001) // =======================================================
(PID.TID 0000.0001) // End OBCS MONITOR field statistics
(PID.TID 0000.0001) // =======================================================
 cg2d: Sum(rhs),rhsMax =   3.00479526215972E+00  4.53036991324594E+02
(PID.TID 0000.0001)      cg2d_init_res =   6.66525865298272E-06
(PID.TID 0000.0001)      cg2d_iters(min,last) =      -1      79
(PID.TID 0000.0001)      cg2d_last_res =   9.56695202185760E-12
(PID.TID 0000.0001) // =======================================================
(PID.TID 0000.0001) // Begin MONITOR dynamic field statistics
(PID.TID 0000.0001) // =======================================================
(PID.TID 0000.0001) %MON time_tsnumber                =                  1542
(PID.TID 0000.0001) %MON time_secondsf                =   1.5420000000000E+05
(PID.TID 0000.0001) %MON dynstat_eta_max              =   5.7998195966222E+00
(PID.TID 0000.0001) %MON dynstat_eta_min              =  -1.4163859078618E+01
(PID.TID 0000.0001) %MON dynstat_eta_mean             =  -2.5208951946578E+00
(PID.TID 0000.0001) %MON dynstat_eta_sd               =   4.9401637778423E+00
(PID.TID 0000.0001) %MON dynstat_eta_del2             =   1.9059729411371E-01
(PID.TID 0000.0001) %MON dynstat_uvel_max             =   1.5335611270209E-02
(PID.TID 0000.0001) %MON dynstat_uvel_min             =  -6.9212045744091E-02
(PID.TID 0000.0001) %MON dynstat_uvel_mean            =   7.0763939063774E-09
(PID.TID 0000.0001) %MON dynstat_uvel_sd              =   2.0176992425252E-03
(PID.TID 0000.0001) %MON dynstat_uvel_del2            =   3.1786850401901E-06
(PID.TID 0000.0001) %MON dynstat_vvel_max             =   3.7665192264411E-02
(PID.TID 0000.0001) %MON dynstat_vvel_min             =  -2.1344477103540E-02
(PID.TID 0000.0001) %MON dynstat_vvel_mean            =   1.4857384368537E-07
(PID.TID 0000.0001) %MON dynstat_vvel_sd              =   8.6482356248978E-04
(PID.TID 0000.0001) %MON dynstat_vvel_del2            =   2.2135871819084E-06
(PID.TID 0000.0001) %MON dynstat_wvel_max             =   2.5274394715710E-03
(PID.TID 0000.0001) %MON dynstat_wvel_min             =  -3.0933684338501E-03
(PID.TID 0000.0001) %MON dynstat_wvel_mean            =   5.2824345236004E-10
(PID.TID 0000.0001) %MON dynstat_wvel_sd              =   4.2873357837652E-05
(PID.TID 0000.0001) %MON dynstat_wvel_del2            =   1.5810756997175E-07
(PID.TID 0000.0001) %MON dynstat_theta_max            =   1.2000000000000E+00
(PID.TID 0000.0001) %MON dynstat_theta_min            =  -1.0000000000000E+00
(PID.TID 0000.0001) %MON dynstat_theta_mean           =   5.6474842003896E-01
(PID.TID 0000.0001) %MON dynstat_theta_sd             =   8.4876881760442E-01
(PID.TID 0000.0001) %MON dynstat_theta_del2           =   6.0968946135281E-06
(PID.TID 0000.0001) %MON dynstat_salt_max             =   3.4700000000000E+01
(PID.TID 0000.0001) %MON dynstat_salt_min             =   3.4000000000000E+01
(PID.TID 0000.0001) %MON dynstat_salt_mean            =   3.4497813478330E+01
(PID.TID 0000.0001) %MON dynstat_salt_sd              =   2.7004844657310E-01
(PID.TID 0000.0001) %MON dynstat_salt_del2            =   2.4168201470341E-06
(PID.TID 0000.0001) %MON advcfl_uvel_max              =   6.9212045744091E-03
(PID.TID 0000.0001) %MON advcfl_vvel_max              =   3.7665192264411E-03
(PID.TID 0000.0001) %MON advcfl_wvel_max              =   1.5466842169251E-02
(PID.TID 0000.0001) %MON advcfl_W_hf_max              =   1.5466842169251E-02
(PID.TID 0000.0001) %MON pe_b_mean                    =  -6.8100995586697E-01
(PID.TID 0000.0001) %MON ke_max                       =   2.2504637922526E-03
(PID.TID 0000.0001) %MON ke_mean                      =   2.3712390643187E-06
(PID.TID 0000.0001) %MON ke_vol                       =   4.6183258104726E+12
(PID.TID 0000.0001) // =======================================================
(PID.TID 0000.0001) // End MONITOR dynamic field statistics
(PID.TID 0000.0001) // =======================================================
(PID.TID 0000.0001) // =======================================================
(PID.TID 0000.0001) // Begin OBCS MONITOR field statistics
(PID.TID 0000.0001) // =======================================================
(PID.TID 0000.0001) %MON obc_N_vVel_max               =   9.1450690190407E-08
(PID.TID 0000.0001) %MON obc_N_vVel_min               =   9.1450690190404E-08
(PID.TID 0000.0001) %MON obc_N_vVel_mean              =   9.1450690190407E-08
(PID.TID 0000.0001) %MON obc_N_vVel_sd                =  -7.5099558177040E-28
(PID.TID 0000.0001) %MON obc_N_vVel_Int               =   6.0357455525669E+00
(PID.TID 0000.0001) // =======================================================
(PID.TID 0000.0001) // End OBCS MONITOR field statistics
(PID.TID 0000.0001) // =======================================================
 cg2d: Sum(rhs),rhsMax =   3.00478092756392E+00  4.53036968064361E+02
(PID.TID 0000.0001)      cg2d_init_res =   6.67509805517282E-06
(PID.TID 0000.0001)      cg2d_iters(min,last) =      -1      79
(PID.TID 0000.0001)      cg2d_last_res =   9.58596041806014E-12
(PID.TID 0000.0001) // =======================================================
(PID.TID 0000.0001) // Begin MONITOR dynamic field statistics
(PID.TID 0000.0001) // =======================================================
(PID.TID 0000.0001) %MON time_tsnumber                =                  1543
(PID.TID 0000.0001) %MON time_secondsf                =   1.5430000000000E+05
(PID.TID 0000.0001) %MON dynstat_eta_max              =   5.7998230481403E+00
(PID.TID 0000.0001) %MON dynstat_eta_min              =  -1.4163855583088E+01
(PID.TID 0000.0001) %MON dynstat_eta_mean             =  -2.5208830391133E+00
(PID.TID 0000.0001) %MON dynstat_eta_sd               =   4.9401602685230E+00
(PID.TID 0000.0001) %MON dynstat_eta_del2             =   1.9059733057906E-01
(PID.TID 0000.0001) %MON dynstat_uvel_max             =   1.5366280853199E-02
(PID.TID 0000.0001) %MON dynstat_uvel_min             =  -6.9345256897236E-02
(PID.TID 0000.0001) %MON dynstat_uvel_mean            =   7.0874373586755E-09
(PID.TID 0000.0001) %MON dynstat_uvel_sd              =   2.0218598612248E-03
(PID.TID 0000.0001) %MON dynstat_uvel_del2            =   3.1857498238727E-06
(PID.TID 0000.0001) %MON dynstat_vvel_max             =   3.7708071329821E-02
(PID.TID 0000.0001) %MON dynstat_vvel_min             =  -2.1391664406734E-02
(PID.TID 0000.0001) %MON dynstat_vvel_mean            =   1.4666736760950E-07
(PID.TID 0000.0001) %MON dynstat_vvel_sd              =   8.6641504220926E-04
(PID.TID 0000.0001) %MON dynstat_vvel_del2            =   2.2172009773998E-06
(PID.TID 0000.0001) %MON dynstat_wvel_max             =   2.5310381027799E-03
(PID.TID 0000.0001) %MON dynstat_wvel_min             =  -3.0955400906930E-03
(PID.TID 0000.0001) %MON dynstat_wvel_mean            =   5.3068813723716E-10
(PID.TID 0000.0001) %MON dynstat_wvel_sd              =   4.2940200197640E-05
(PID.TID 0000.0001) %MON dynstat_wvel_del2            =   1.5829611691905E-07
(PID.TID 0000.0001) %MON dynstat_theta_max            =   1.2000000000000E+00
(PID.TID 0000.0001) %MON dynstat_theta_min            =  -1.0000000000000E+00
(PID.TID 0000.0001) %MON dynstat_theta_mean           =   5.6474706215985E-01
(PID.TID 0000.0001) %MON dynstat_theta_sd             =   8.4876822689657E-01
(PID.TID 0000.0001) %MON dynstat_theta_del2           =   6.1067143337998E-06
(PID.TID 0000.0001) %MON dynstat_salt_max             =   3.4700000000000E+01
(PID.TID 0000.0001) %MON dynstat_salt_min             =   3.4000000000000E+01
(PID.TID 0000.0001) %MON dynstat_salt_mean            =   3.4497812935274E+01
(PID.TID 0000.0001) %MON dynstat_salt_sd              =   2.7004822628817E-01
(PID.TID 0000.0001) %MON dynstat_salt_del2            =   2.4207234101342E-06
(PID.TID 0000.0001) %MON advcfl_uvel_max              =   6.9345256897236E-03
(PID.TID 0000.0001) %MON advcfl_vvel_max              =   3.7708071329821E-03
(PID.TID 0000.0001) %MON advcfl_wvel_max              =   1.5477700453465E-02
(PID.TID 0000.0001) %MON advcfl_W_hf_max              =   1.5477700453465E-02
(PID.TID 0000.0001) %MON pe_b_mean                    =  -6.8100628862509E-01
(PID.TID 0000.0001) %MON ke_max                       =   2.2596829070006E-03
(PID.TID 0000.0001) %MON ke_mean                      =   2.3808622008412E-06
(PID.TID 0000.0001) %MON ke_vol                       =   4.6183258825437E+12
(PID.TID 0000.0001) // =======================================================
(PID.TID 0000.0001) // End MONITOR dynamic field statistics
(PID.TID 0000.0001) // =======================================================
(PID.TID 0000.0001) // =======================================================
(PID.TID 0000.0001) // Begin OBCS MONITOR field statistics
(PID.TID 0000.0001) // =======================================================
(PID.TID 0000.0001) %MON obc_N_vVel_max               =   8.9448718403412E-08
(PID.TID 0000.0001) %MON obc_N_vVel_min               =   8.9448718403411E-08
(PID.TID 0000.0001) %MON obc_N_vVel_mean              =   8.9448718403412E-08
(PID.TID 0000.0001) %MON obc_N_vVel_sd                =  -3.3289930200327E-28
(PID.TID 0000.0001) %MON obc_N_vVel_Int               =   5.9036154146252E+00
(PID.TID 0000.0001) // =======================================================
(PID.TID 0000.0001) // End OBCS MONITOR field statistics
(PID.TID 0000.0001) // =======================================================
 cg2d: Sum(rhs),rhsMax =   3.00476656662659E+00  4.53036944792043E+02
(PID.TID 0000.0001)      cg2d_init_res =   6.68491812923008E-06
(PID.TID 0000.0001)      cg2d_iters(min,last) =      -1      79
(PID.TID 0000.0001)      cg2d_last_res =   9.60497934605790E-12
(PID.TID 0000.0001) // =======================================================
(PID.TID 0000.0001) // Begin MONITOR dynamic field statistics
(PID.TID 0000.0001) // =======================================================
(PID.TID 0000.0001) %MON time_tsnumber                =                  1544
(PID.TID 0000.0001) %MON time_secondsf                =   1.5440000000000E+05
(PID.TID 0000.0001) %MON dynstat_eta_max              =   5.7998265070910E+00
(PID.TID 0000.0001) %MON dynstat_eta_min              =  -1.4163852080783E+01
(PID.TID 0000.0001) %MON dynstat_eta_mean             =  -2.5208708614033E+00
(PID.TID 0000.0001) %MON dynstat_eta_sd               =   4.9401567527433E+00
(PID.TID 0000.0001) %MON dynstat_eta_del2             =   1.9059736709674E-01
(PID.TID 0000.0001) %MON dynstat_uvel_max             =   1.5396976467647E-02
(PID.TID 0000.0001) %MON dynstat_uvel_min             =  -6.9478555048736E-02
(PID.TID 0000.0001) %MON dynstat_uvel_mean            =   7.0962756109254E-09
(PID.TID 0000.0001) %MON dynstat_uvel_sd              =   2.0260261589334E-03
(PID.TID 0000.0001) %MON dynstat_uvel_del2            =   3.1928275031529E-06
(PID.TID 0000.0001) %MON dynstat_vvel_max             =   3.7750944057114E-02
(PID.TID 0000.0001) %MON dynstat_vvel_min             =  -2.1438848032137E-02
(PID.TID 0000.0001) %MON dynstat_vvel_mean            =   1.4499768047128E-07
(PID.TID 0000.0001) %MON dynstat_vvel_sd              =   8.6800869541486E-04
(PID.TID 0000.0001) %MON dynstat_vvel_del2            =   2.2208185041968E-06
(PID.TID 0000.0001) %MON dynstat_wvel_max             =   2.5346359514141E-03
(PID.TID 0000.0001) %MON dynstat_wvel_min             =  -3.0976859850303E-03
(PID.TID 0000.0001) %MON dynstat_wvel_mean            =   5.3346340370973E-10
(PID.TID 0000.0001) %MON dynstat_wvel_sd              =   4.3006921264881E-05
(PID.TID 0000.0001) %MON dynstat_wvel_del2            =   1.5848438058942E-07
(PID.TID 0000.0001) %MON dynstat_theta_max            =   1.2000000000000E+00
(PID.TID 0000.0001) %MON dynstat_theta_min            =  -1.0000000000000E+00
(PID.TID 0000.0001) %MON dynstat_theta_mean           =   5.6474570204829E-01
(PID.TID 0000.0001) %MON dynstat_theta_sd             =   8.4876763540880E-01
(PID.TID 0000.0001) %MON dynstat_theta_del2           =   6.1165440254394E-06
(PID.TID 0000.0001) %MON dynstat_salt_max             =   3.4700000000000E+01
(PID.TID 0000.0001) %MON dynstat_salt_min             =   3.4000000000000E+01
(PID.TID 0000.0001) %MON dynstat_salt_mean            =   3.4497812391325E+01
(PID.TID 0000.0001) %MON dynstat_salt_sd              =   2.7004800573301E-01
(PID.TID 0000.0001) %MON dynstat_salt_del2            =   2.4246306060601E-06
(PID.TID 0000.0001) %MON advcfl_uvel_max              =   6.9478555048736E-03
(PID.TID 0000.0001) %MON advcfl_vvel_max              =   3.7750944057114E-03
(PID.TID 0000.0001) %MON advcfl_wvel_max              =   1.5488429925152E-02
(PID.TID 0000.0001) %MON advcfl_W_hf_max              =   1.5488429925152E-02
(PID.TID 0000.0001) %MON pe_b_mean                    =  -6.8100261494105E-01
(PID.TID 0000.0001) %MON ke_max                       =   2.2689271568556E-03
(PID.TID 0000.0001) %MON ke_mean                      =   2.3905180315416E-06
(PID.TID 0000.0001) %MON ke_vol                       =   4.6183259547477E+12
(PID.TID 0000.0001) // =======================================================
(PID.TID 0000.0001) // End MONITOR dynamic field statistics
(PID.TID 0000.0001) // =======================================================
(PID.TID 0000.0001) // =======================================================
(PID.TID 0000.0001) // Begin OBCS MONITOR field statistics
(PID.TID 0000.0001) // =======================================================
(PID.TID 0000.0001) %MON obc_N_vVel_max               =   8.7638364434045E-08
(PID.TID 0000.0001) %MON obc_N_vVel_min               =   8.7638364434041E-08
(PID.TID 0000.0001) %MON obc_N_vVel_mean              =   8.7638364434041E-08
(PID.TID 0000.0001) %MON obc_N_vVel_sd                =   2.2008193833336E-14
(PID.TID 0000.0001) %MON obc_N_vVel_Int               =   5.7841320526467E+00
(PID.TID 0000.0001) // =======================================================
(PID.TID 0000.0001) // End OBCS MONITOR field statistics
(PID.TID 0000.0001) // =======================================================
 cg2d: Sum(rhs),rhsMax =   3.00475217960172E+00  4.53036921513515E+02
(PID.TID 0000.0001)      cg2d_init_res =   6.69471863617214E-06
(PID.TID 0000.0001)      cg2d_iters(min,last) =      -1      79
(PID.TID 0000.0001)      cg2d_last_res =   9.62399345701087E-12
(PID.TID 0000.0001) // =======================================================
(PID.TID 0000.0001) // Begin MONITOR dynamic field statistics
(PID.TID 0000.0001) // =======================================================
(PID.TID 0000.0001) %MON time_tsnumber                =                  1545
(PID.TID 0000.0001) %MON time_secondsf                =   1.5450000000000E+05
(PID.TID 0000.0001) %MON dynstat_eta_max              =   5.7998299731286E+00
(PID.TID 0000.0001) %MON dynstat_eta_min              =  -1.4163848572249E+01
(PID.TID 0000.0001) %MON dynstat_eta_mean             =  -2.5208586617737E+00
(PID.TID 0000.0001) %MON dynstat_eta_sd               =   4.9401532306205E+00
(PID.TID 0000.0001) %MON dynstat_eta_del2             =   1.9059740366696E-01
(PID.TID 0000.0001) %MON dynstat_uvel_max             =   1.5427697986324E-02
(PID.TID 0000.0001) %MON dynstat_uvel_min             =  -6.9611940259957E-02
(PID.TID 0000.0001) %MON dynstat_uvel_mean            =   7.1031451379833E-09
(PID.TID 0000.0001) %MON dynstat_uvel_sd              =   2.0301981318737E-03
(PID.TID 0000.0001) %MON dynstat_uvel_del2            =   3.1999180875459E-06
(PID.TID 0000.0001) %MON dynstat_vvel_max             =   3.7793810320095E-02
(PID.TID 0000.0001) %MON dynstat_vvel_min             =  -2.1486026850264E-02
(PID.TID 0000.0001) %MON dynstat_vvel_mean            =   1.4360889472943E-07
(PID.TID 0000.0001) %MON dynstat_vvel_sd              =   8.6960450271838E-04
(PID.TID 0000.0001) %MON dynstat_vvel_del2            =   2.2244397274096E-06
(PID.TID 0000.0001) %MON dynstat_wvel_max             =   2.5382329925776E-03
(PID.TID 0000.0001) %MON dynstat_wvel_min             =  -3.0998060191007E-03
(PID.TID 0000.0001) %MON dynstat_wvel_mean            =   5.3652103901383E-10
(PID.TID 0000.0001) %MON dynstat_wvel_sd              =   4.3073470399615E-05
(PID.TID 0000.0001) %MON dynstat_wvel_del2            =   1.5867231171420E-07
(PID.TID 0000.0001) %MON dynstat_theta_max            =   1.2000000000000E+00
(PID.TID 0000.0001) %MON dynstat_theta_min            =  -1.0000000000000E+00
(PID.TID 0000.0001) %MON dynstat_theta_mean           =   5.6474433970299E-01
(PID.TID 0000.0001) %MON dynstat_theta_sd             =   8.4876704314166E-01
(PID.TID 0000.0001) %MON dynstat_theta_del2           =   6.1263836921073E-06
(PID.TID 0000.0001) %MON dynstat_salt_max             =   3.4700000000000E+01
(PID.TID 0000.0001) %MON dynstat_salt_min             =   3.4000000000000E+01
(PID.TID 0000.0001) %MON dynstat_salt_mean            =   3.4497811846481E+01
(PID.TID 0000.0001) %MON dynstat_salt_sd              =   2.7004778490770E-01
(PID.TID 0000.0001) %MON dynstat_salt_del2            =   2.4285417308017E-06
(PID.TID 0000.0001) %MON advcfl_uvel_max              =   6.9611940259957E-03
(PID.TID 0000.0001) %MON advcfl_vvel_max              =   3.7793810320095E-03
(PID.TID 0000.0001) %MON advcfl_wvel_max              =   1.5499030095503E-02
(PID.TID 0000.0001) %MON advcfl_W_hf_max              =   1.5499030095503E-02
(PID.TID 0000.0001) %MON pe_b_mean                    =  -6.8099893487191E-01
(PID.TID 0000.0001) %MON ke_max                       =   2.2781965064208E-03
(PID.TID 0000.0001) %MON ke_mean                      =   2.4002066120794E-06
(PID.TID 0000.0001) %MON ke_vol                       =   4.6183260270833E+12
(PID.TID 0000.0001) // =======================================================
(PID.TID 0000.0001) // End MONITOR dynamic field statistics
(PID.TID 0000.0001) // =======================================================
(PID.TID 0000.0001) // =======================================================
(PID.TID 0000.0001) // Begin OBCS MONITOR field statistics
(PID.TID 0000.0001) // =======================================================
(PID.TID 0000.0001) %MON obc_N_vVel_max               =   8.6065193372108E-08
(PID.TID 0000.0001) %MON obc_N_vVel_min               =   8.6065193372106E-08
(PID.TID 0000.0001) %MON obc_N_vVel_mean              =   8.6065193372108E-08
(PID.TID 0000.0001) %MON obc_N_vVel_sd                =  -4.8120515218482E-28
(PID.TID 0000.0001) %MON obc_N_vVel_Int               =   5.6803027625591E+00
(PID.TID 0000.0001) // =======================================================
(PID.TID 0000.0001) // End OBCS MONITOR field statistics
(PID.TID 0000.0001) // =======================================================
 cg2d: Sum(rhs),rhsMax =   3.00473776682302E+00  4.53036898230567E+02
(PID.TID 0000.0001)      cg2d_init_res =   6.70449945830657E-06
(PID.TID 0000.0001)      cg2d_iters(min,last) =      -1      79
(PID.TID 0000.0001)      cg2d_last_res =   9.64299126479507E-12
(PID.TID 0000.0001) // =======================================================
(PID.TID 0000.0001) // Begin MONITOR dynamic field statistics
(PID.TID 0000.0001) // =======================================================
(PID.TID 0000.0001) %MON time_tsnumber                =                  1546
(PID.TID 0000.0001) %MON time_secondsf                =   1.5460000000000E+05
(PID.TID 0000.0001) %MON dynstat_eta_max              =   5.7998334458494E+00
(PID.TID 0000.0001) %MON dynstat_eta_min              =  -1.4163845058100E+01
(PID.TID 0000.0001) %MON dynstat_eta_mean             =  -2.5208464405143E+00
(PID.TID 0000.0001) %MON dynstat_eta_sd               =   4.9401497022803E+00
(PID.TID 0000.0001) %MON dynstat_eta_del2             =   1.9059744028987E-01
(PID.TID 0000.0001) %MON dynstat_uvel_max             =   1.5458445281518E-02
(PID.TID 0000.0001) %MON dynstat_uvel_min             =  -6.9745412592862E-02
(PID.TID 0000.0001) %MON dynstat_uvel_mean            =   7.1083203877253E-09
(PID.TID 0000.0001) %MON dynstat_uvel_sd              =   2.0343757762718E-03
(PID.TID 0000.0001) %MON dynstat_uvel_del2            =   3.2070215865086E-06
(PID.TID 0000.0001) %MON dynstat_vvel_max             =   3.7836669991184E-02
(PID.TID 0000.0001) %MON dynstat_vvel_min             =  -2.1533199721826E-02
(PID.TID 0000.0001) %MON dynstat_vvel_mean            =   1.4253828904446E-07
(PID.TID 0000.0001) %MON dynstat_vvel_sd              =   8.7120244726464E-04
(PID.TID 0000.0001) %MON dynstat_vvel_del2            =   2.2280646178840E-06
(PID.TID 0000.0001) %MON dynstat_wvel_max             =   2.5418292014119E-03
(PID.TID 0000.0001) %MON dynstat_wvel_min             =  -3.1019000965645E-03
(PID.TID 0000.0001) %MON dynstat_wvel_mean            =   5.3980727807184E-10
(PID.TID 0000.0001) %MON dynstat_wvel_sd              =   4.3139804191452E-05
(PID.TID 0000.0001) %MON dynstat_wvel_del2            =   1.5885987959611E-07
(PID.TID 0000.0001) %MON dynstat_theta_max            =   1.2000000000000E+00
(PID.TID 0000.0001) %MON dynstat_theta_min            =  -1.0000000000000E+00
(PID.TID 0000.0001) %MON dynstat_theta_mean           =   5.6474297512265E-01
(PID.TID 0000.0001) %MON dynstat_theta_sd             =   8.4876645009482E-01
(PID.TID 0000.0001) %MON dynstat_theta_del2           =   6.1362333182667E-06
(PID.TID 0000.0001) %MON dynstat_salt_max             =   3.4700000000000E+01
(PID.TID 0000.0001) %MON dynstat_salt_min             =   3.4000000000000E+01
(PID.TID 0000.0001) %MON dynstat_salt_mean            =   3.4497811300742E+01
(PID.TID 0000.0001) %MON dynstat_salt_sd              =   2.7004756381240E-01
(PID.TID 0000.0001) %MON dynstat_salt_del2            =   2.4324567947080E-06
(PID.TID 0000.0001) %MON advcfl_uvel_max              =   6.9745412592862E-03
(PID.TID 0000.0001) %MON advcfl_vvel_max              =   3.7836669991184E-03
(PID.TID 0000.0001) %MON advcfl_wvel_max              =   1.5509500482823E-02
(PID.TID 0000.0001) %MON advcfl_W_hf_max              =   1.5509500482823E-02
(PID.TID 0000.0001) %MON pe_b_mean                    =  -6.8099524848232E-01
(PID.TID 0000.0001) %MON ke_max                       =   2.2874909193234E-03
(PID.TID 0000.0001) %MON ke_mean                      =   2.4099280002489E-06
(PID.TID 0000.0001) %MON ke_vol                       =   4.6183260995491E+12
(PID.TID 0000.0001) // =======================================================
(PID.TID 0000.0001) // End MONITOR dynamic field statistics
(PID.TID 0000.0001) // =======================================================
(PID.TID 0000.0001) // =======================================================
(PID.TID 0000.0001) // Begin OBCS MONITOR field statistics
(PID.TID 0000.0001) // =======================================================
(PID.TID 0000.0001) %MON obc_N_vVel_max               =   8.4768883398014E-08
(PID.TID 0000.0001) %MON obc_N_vVel_min               =   8.4768883398012E-08
(PID.TID 0000.0001) %MON obc_N_vVel_mean              =   8.4768883398012E-08
(PID.TID 0000.0001) %MON obc_N_vVel_sd                =   8.7925177686291E-15
(PID.TID 0000.0001) %MON obc_N_vVel_Int               =   5.5947463042688E+00
(PID.TID 0000.0001) // =======================================================
(PID.TID 0000.0001) // End OBCS MONITOR field statistics
(PID.TID 0000.0001) // =======================================================
 cg2d: Sum(rhs),rhsMax =   3.00472332862009E+00  4.53036874952121E+02
(PID.TID 0000.0001)      cg2d_init_res =   6.71426308770061E-06
(PID.TID 0000.0001)      cg2d_iters(min,last) =      -1      79
(PID.TID 0000.0001)      cg2d_last_res =   9.66196170682404E-12
(PID.TID 0000.0001) // =======================================================
(PID.TID 0000.0001) // Begin MONITOR dynamic field statistics
(PID.TID 0000.0001) // =======================================================
(PID.TID 0000.0001) %MON time_tsnumber                =                  1547
(PID.TID 0000.0001) %MON time_secondsf                =   1.5470000000000E+05
(PID.TID 0000.0001) %MON dynstat_eta_max              =   5.7998369248107E+00
(PID.TID 0000.0001) %MON dynstat_eta_min              =  -1.4163841538975E+01
(PID.TID 0000.0001) %MON dynstat_eta_mean             =  -2.5208341979514E+00
(PID.TID 0000.0001) %MON dynstat_eta_sd               =   4.9401461678533E+00
(PID.TID 0000.0001) %MON dynstat_eta_del2             =   1.9059747696564E-01
(PID.TID 0000.0001) %MON dynstat_uvel_max             =   1.5489218223657E-02
(PID.TID 0000.0001) %MON dynstat_uvel_min             =  -6.9878972109493E-02
(PID.TID 0000.0001) %MON dynstat_uvel_mean            =   7.1121097526894E-09
(PID.TID 0000.0001) %MON dynstat_uvel_sd              =   2.0385590883862E-03
(PID.TID 0000.0001) %MON dynstat_uvel_del2            =   3.2141380097724E-06
(PID.TID 0000.0001) %MON dynstat_vvel_max             =   3.7879522941156E-02
(PID.TID 0000.0001) %MON dynstat_vvel_min             =  -2.1580365498048E-02
(PID.TID 0000.0001) %MON dynstat_vvel_mean            =   1.4181554338823E-07
(PID.TID 0000.0001) %MON dynstat_vvel_sd              =   8.7280251539539E-04
(PID.TID 0000.0001) %MON dynstat_vvel_del2            =   2.2316931525600E-06
(PID.TID 0000.0001) %MON dynstat_wvel_max             =   2.5454245530894E-03
(PID.TID 0000.0001) %MON dynstat_wvel_min             =  -3.1039681225666E-03
(PID.TID 0000.0001) %MON dynstat_wvel_mean            =   5.4326361953946E-10
(PID.TID 0000.0001) %MON dynstat_wvel_sd              =   4.3205887478904E-05
(PID.TID 0000.0001) %MON dynstat_wvel_del2            =   1.5904706617354E-07
(PID.TID 0000.0001) %MON dynstat_theta_max            =   1.2000000000000E+00
(PID.TID 0000.0001) %MON dynstat_theta_min            =  -1.0000000000000E+00
(PID.TID 0000.0001) %MON dynstat_theta_mean           =   5.6474160830593E-01
(PID.TID 0000.0001) %MON dynstat_theta_sd             =   8.4876585626836E-01
(PID.TID 0000.0001) %MON dynstat_theta_del2           =   6.1460928228909E-06
(PID.TID 0000.0001) %MON dynstat_salt_max             =   3.4700000000000E+01
(PID.TID 0000.0001) %MON dynstat_salt_min             =   3.4000000000000E+01
(PID.TID 0000.0001) %MON dynstat_salt_mean            =   3.4497810754108E+01
(PID.TID 0000.0001) %MON dynstat_salt_sd              =   2.7004734244724E-01
(PID.TID 0000.0001) %MON dynstat_salt_del2            =   2.4363757924117E-06
(PID.TID 0000.0001) %MON advcfl_uvel_max              =   6.9878972109493E-03
(PID.TID 0000.0001) %MON advcfl_vvel_max              =   3.7879522941156E-03
(PID.TID 0000.0001) %MON advcfl_wvel_max              =   1.5519840612833E-02
(PID.TID 0000.0001) %MON advcfl_W_hf_max              =   1.5519840612833E-02
(PID.TID 0000.0001) %MON pe_b_mean                    =  -6.8099155584264E-01
(PID.TID 0000.0001) %MON ke_max                       =   2.2968103582272E-03
(PID.TID 0000.0001) %MON ke_mean                      =   2.4196822566384E-06
(PID.TID 0000.0001) %MON ke_vol                       =   4.6183261721433E+12
(PID.TID 0000.0001) // =======================================================
(PID.TID 0000.0001) // End MONITOR dynamic field statistics
(PID.TID 0000.0001) // =======================================================
(PID.TID 0000.0001) // =======================================================
(PID.TID 0000.0001) // Begin OBCS MONITOR field statistics
(PID.TID 0000.0001) // =======================================================
(PID.TID 0000.0001) %MON obc_N_vVel_max               =   8.3782423207529E-08
(PID.TID 0000.0001) %MON obc_N_vVel_min               =   8.3782423207525E-08
(PID.TID 0000.0001) %MON obc_N_vVel_mean              =   8.3782423207525E-08
(PID.TID 0000.0001) %MON obc_N_vVel_sd                =   1.8903808877184E-14
(PID.TID 0000.0001) %MON obc_N_vVel_Int               =   5.5296399316967E+00
(PID.TID 0000.0001) // =======================================================
(PID.TID 0000.0001) // End OBCS MONITOR field statistics
(PID.TID 0000.0001) // =======================================================
 cg2d: Sum(rhs),rhsMax =   3.00470886538710E+00  4.53036851682537E+02
(PID.TID 0000.0001)      cg2d_init_res =   6.72401063737801E-06
(PID.TID 0000.0001)      cg2d_iters(min,last) =      -1      79
(PID.TID 0000.0001)      cg2d_last_res =   9.68089931692027E-12
(PID.TID 0000.0001) // =======================================================
(PID.TID 0000.0001) // Begin MONITOR dynamic field statistics
(PID.TID 0000.0001) // =======================================================
(PID.TID 0000.0001) %MON time_tsnumber                =                  1548
(PID.TID 0000.0001) %MON time_secondsf                =   1.5480000000000E+05
(PID.TID 0000.0001) %MON dynstat_eta_max              =   5.7998404095267E+00
(PID.TID 0000.0001) %MON dynstat_eta_min              =  -1.4163838015580E+01
(PID.TID 0000.0001) %MON dynstat_eta_mean             =  -2.5208219344400E+00
(PID.TID 0000.0001) %MON dynstat_eta_sd               =   4.9401426274724E+00
(PID.TID 0000.0001) %MON dynstat_eta_del2             =   1.9059751369443E-01
(PID.TID 0000.0001) %MON dynstat_uvel_max             =   1.5520016669595E-02
(PID.TID 0000.0001) %MON dynstat_uvel_min             =  -7.0012618872635E-02
(PID.TID 0000.0001) %MON dynstat_uvel_mean            =   7.1148500770174E-09
(PID.TID 0000.0001) %MON dynstat_uvel_sd              =   2.0427480644561E-03
(PID.TID 0000.0001) %MON dynstat_uvel_del2            =   3.2212673671764E-06
(PID.TID 0000.0001) %MON dynstat_vvel_max             =   3.7922369039179E-02
(PID.TID 0000.0001) %MON dynstat_vvel_min             =  -2.1627523020520E-02
(PID.TID 0000.0001) %MON dynstat_vvel_mean            =   1.4146215632724E-07
(PID.TID 0000.0001) %MON dynstat_vvel_sd              =   8.7440469703038E-04
(PID.TID 0000.0001) %MON dynstat_vvel_del2            =   2.2353253134475E-06
(PID.TID 0000.0001) %MON dynstat_wvel_max             =   2.5490190228502E-03
(PID.TID 0000.0001) %MON dynstat_wvel_min             =  -3.1060100036660E-03
(PID.TID 0000.0001) %MON dynstat_wvel_mean            =   5.4682865726288E-10
(PID.TID 0000.0001) %MON dynstat_wvel_sd              =   4.3271694064810E-05
(PID.TID 0000.0001) %MON dynstat_wvel_del2            =   1.5923386002751E-07
(PID.TID 0000.0001) %MON dynstat_theta_max            =   1.2000000000000E+00
(PID.TID 0000.0001) %MON dynstat_theta_min            =  -1.0000000000000E+00
(PID.TID 0000.0001) %MON dynstat_theta_mean           =   5.6474023925147E-01
(PID.TID 0000.0001) %MON dynstat_theta_sd             =   8.4876526166453E-01
(PID.TID 0000.0001) %MON dynstat_theta_del2           =   6.1559617380077E-06
(PID.TID 0000.0001) %MON dynstat_salt_max             =   3.4700000000000E+01
(PID.TID 0000.0001) %MON dynstat_salt_min             =   3.4000000000000E+01
(PID.TID 0000.0001) %MON dynstat_salt_mean            =   3.4497810206578E+01
(PID.TID 0000.0001) %MON dynstat_salt_sd              =   2.7004712081245E-01
(PID.TID 0000.0001) %MON dynstat_salt_del2            =   2.4402987112198E-06
(PID.TID 0000.0001) %MON advcfl_uvel_max              =   7.0012618872635E-03
(PID.TID 0000.0001) %MON advcfl_vvel_max              =   3.7922369039179E-03
(PID.TID 0000.0001) %MON advcfl_wvel_max              =   1.5530050018330E-02
(PID.TID 0000.0001) %MON advcfl_W_hf_max              =   1.5530050018330E-02
(PID.TID 0000.0001) %MON pe_b_mean                    =  -6.8098785702745E-01
(PID.TID 0000.0001) %MON ke_max                       =   2.3061547848156E-03
(PID.TID 0000.0001) %MON ke_mean                      =   2.4294694448838E-06
(PID.TID 0000.0001) %MON ke_vol                       =   4.6183262448642E+12
(PID.TID 0000.0001) // =======================================================
(PID.TID 0000.0001) // End MONITOR dynamic field statistics
(PID.TID 0000.0001) // =======================================================
(PID.TID 0000.0001) // =======================================================
(PID.TID 0000.0001) // Begin OBCS MONITOR field statistics
(PID.TID 0000.0001) // =======================================================
(PID.TID 0000.0001) %MON obc_N_vVel_max               =   8.3131417488001E-08
(PID.TID 0000.0001) %MON obc_N_vVel_min               =   8.3131417487999E-08
(PID.TID 0000.0001) %MON obc_N_vVel_mean              =   8.3131417487999E-08
(PID.TID 0000.0001) %MON obc_N_vVel_sd                =   2.0867467974865E-14
(PID.TID 0000.0001) %MON obc_N_vVel_Int               =   5.4866735542080E+00
(PID.TID 0000.0001) // =======================================================
(PID.TID 0000.0001) // End OBCS MONITOR field statistics
(PID.TID 0000.0001) // =======================================================
 cg2d: Sum(rhs),rhsMax =   3.00469437754585E+00  4.53036828425500E+02
(PID.TID 0000.0001)      cg2d_init_res =   6.73366442451086E-06
(PID.TID 0000.0001)      cg2d_iters(min,last) =      -1      79
(PID.TID 0000.0001)      cg2d_last_res =   9.69963772250926E-12
(PID.TID 0000.0001) // =======================================================
(PID.TID 0000.0001) // Begin MONITOR dynamic field statistics
(PID.TID 0000.0001) // =======================================================
(PID.TID 0000.0001) %MON time_tsnumber                =                  1549
(PID.TID 0000.0001) %MON time_secondsf                =   1.5490000000000E+05
(PID.TID 0000.0001) %MON dynstat_eta_max              =   5.7998438994989E+00
(PID.TID 0000.0001) %MON dynstat_eta_min              =  -1.4163834488627E+01
(PID.TID 0000.0001) %MON dynstat_eta_mean             =  -2.5208096503543E+00
(PID.TID 0000.0001) %MON dynstat_eta_sd               =   4.9401390812620E+00
(PID.TID 0000.0001) %MON dynstat_eta_del2             =   1.9059755047590E-01
(PID.TID 0000.0001) %MON dynstat_uvel_max             =   1.5550840487243E-02
(PID.TID 0000.0001) %MON dynstat_uvel_min             =  -7.0146352941492E-02
(PID.TID 0000.0001) %MON dynstat_uvel_mean            =   7.1168662180811E-09
(PID.TID 0000.0001) %MON dynstat_uvel_sd              =   2.0469427010819E-03
(PID.TID 0000.0001) %MON dynstat_uvel_del2            =   3.2284096700303E-06
(PID.TID 0000.0001) %MON dynstat_vvel_max             =   3.7965208152654E-02
(PID.TID 0000.0001) %MON dynstat_vvel_min             =  -2.1674671122632E-02
(PID.TID 0000.0001) %MON dynstat_vvel_mean            =   1.4149107006443E-07
(PID.TID 0000.0001) %MON dynstat_vvel_sd              =   8.7600898549292E-04
(PID.TID 0000.0001) %MON dynstat_vvel_del2            =   2.2389610823621E-06
(PID.TID 0000.0001) %MON dynstat_wvel_max             =   2.5526125859490E-03
(PID.TID 0000.0001) %MON dynstat_wvel_min             =  -3.1080256477888E-03
(PID.TID 0000.0001) %MON dynstat_wvel_mean            =   5.5044051029009E-10
(PID.TID 0000.0001) %MON dynstat_wvel_sd              =   4.3337207028637E-05
(PID.TID 0000.0001) %MON dynstat_wvel_del2            =   1.5942024793254E-07
(PID.TID 0000.0001) %MON dynstat_theta_max            =   1.2000000000000E+00
(PID.TID 0000.0001) %MON dynstat_theta_min            =  -1.0000000000000E+00
(PID.TID 0000.0001) %MON dynstat_theta_mean           =   5.6473886795790E-01
(PID.TID 0000.0001) %MON dynstat_theta_sd             =   8.4876466628866E-01
(PID.TID 0000.0001) %MON dynstat_theta_del2           =   6.1658382822584E-06
(PID.TID 0000.0001) %MON dynstat_salt_max             =   3.4700000000000E+01
(PID.TID 0000.0001) %MON dynstat_salt_min             =   3.4000000000000E+01
(PID.TID 0000.0001) %MON dynstat_salt_mean            =   3.4497809658152E+01
(PID.TID 0000.0001) %MON dynstat_salt_sd              =   2.7004689890824E-01
(PID.TID 0000.0001) %MON dynstat_salt_del2            =   2.4442255192908E-06
(PID.TID 0000.0001) %MON advcfl_uvel_max              =   7.0146352941492E-03
(PID.TID 0000.0001) %MON advcfl_vvel_max              =   3.7965208152654E-03
(PID.TID 0000.0001) %MON advcfl_wvel_max              =   1.5540128238944E-02
(PID.TID 0000.0001) %MON advcfl_W_hf_max              =   1.5540128238944E-02
(PID.TID 0000.0001) %MON pe_b_mean                    =  -6.8098415211359E-01
(PID.TID 0000.0001) %MON ke_max                       =   2.3155241608135E-03
(PID.TID 0000.0001) %MON ke_mean                      =   2.4392896323089E-06
(PID.TID 0000.0001) %MON ke_vol                       =   4.6183263177094E+12
(PID.TID 0000.0001) // =======================================================
(PID.TID 0000.0001) // End MONITOR dynamic field statistics
(PID.TID 0000.0001) // =======================================================
(PID.TID 0000.0001) // =======================================================
(PID.TID 0000.0001) // Begin OBCS MONITOR field statistics
(PID.TID 0000.0001) // =======================================================
(PID.TID 0000.0001) %MON obc_N_vVel_max               =   8.2833605636345E-08
(PID.TID 0000.0001) %MON obc_N_vVel_min               =   8.2833605636344E-08
(PID.TID 0000.0001) %MON obc_N_vVel_mean              =   8.2833605636345E-08
(PID.TID 0000.0001) %MON obc_N_vVel_sd                =  -3.5656512915990E-28
(PID.TID 0000.0001) %MON obc_N_vVel_Int               =   5.4670179719988E+00
(PID.TID 0000.0001) // =======================================================
(PID.TID 0000.0001) // End OBCS MONITOR field statistics
(PID.TID 0000.0001) // =======================================================
 cg2d: Sum(rhs),rhsMax =   3.00467986553687E+00  4.53036805183835E+02
(PID.TID 0000.0001)      cg2d_init_res =   6.74314659745617E-06
(PID.TID 0000.0001)      cg2d_iters(min,last) =      -1      79
(PID.TID 0000.0001)      cg2d_last_res =   9.71797601718629E-12
(PID.TID 0000.0001) // =======================================================
(PID.TID 0000.0001) // Begin MONITOR dynamic field statistics
(PID.TID 0000.0001) // =======================================================
(PID.TID 0000.0001) %MON time_tsnumber                =                  1550
(PID.TID 0000.0001) %MON time_secondsf                =   1.5500000000000E+05
(PID.TID 0000.0001) %MON dynstat_eta_max              =   5.7998473942219E+00
(PID.TID 0000.0001) %MON dynstat_eta_min              =  -1.4163830958843E+01
(PID.TID 0000.0001) %MON dynstat_eta_mean             =  -2.5207973460797E+00
(PID.TID 0000.0001) %MON dynstat_eta_sd               =   4.9401355293314E+00
(PID.TID 0000.0001) %MON dynstat_eta_del2             =   1.9059758730898E-01
(PID.TID 0000.0001) %MON dynstat_uvel_max             =   1.5581689544965E-02
(PID.TID 0000.0001) %MON dynstat_uvel_min             =  -7.0280174368261E-02
(PID.TID 0000.0001) %MON dynstat_uvel_mean            =   7.1184474568151E-09
(PID.TID 0000.0001) %MON dynstat_uvel_sd              =   2.0511429956228E-03
(PID.TID 0000.0001) %MON dynstat_uvel_del2            =   3.2355649329119E-06
(PID.TID 0000.0001) %MON dynstat_vvel_max             =   3.8008040147206E-02
(PID.TID 0000.0001) %MON dynstat_vvel_min             =  -2.1721808646351E-02
(PID.TID 0000.0001) %MON dynstat_vvel_mean            =   1.4190648748122E-07
(PID.TID 0000.0001) %MON dynstat_vvel_sd              =   8.7761537708456E-04
(PID.TID 0000.0001) %MON dynstat_vvel_del2            =   2.2426004350092E-06
(PID.TID 0000.0001) %MON dynstat_wvel_max             =   2.5562052177193E-03
(PID.TID 0000.0001) %MON dynstat_wvel_min             =  -3.1100149595585E-03
(PID.TID 0000.0001) %MON dynstat_wvel_mean            =   5.5403794424921E-10
(PID.TID 0000.0001) %MON dynstat_wvel_sd              =   4.3402418811376E-05
(PID.TID 0000.0001) %MON dynstat_wvel_del2            =   1.5960620822963E-07
(PID.TID 0000.0001) %MON dynstat_theta_max            =   1.2000000000000E+00
(PID.TID 0000.0001) %MON dynstat_theta_min            =  -1.0000000000000E+00
(PID.TID 0000.0001) %MON dynstat_theta_mean           =   5.6473749442380E-01
(PID.TID 0000.0001) %MON dynstat_theta_sd             =   8.4876407013688E-01
(PID.TID 0000.0001) %MON dynstat_theta_del2           =   6.1757164520959E-06
(PID.TID 0000.0001) %MON dynstat_salt_max             =   3.4700000000000E+01
(PID.TID 0000.0001) %MON dynstat_salt_min             =   3.4000000000000E+01
(PID.TID 0000.0001) %MON dynstat_salt_mean            =   3.4497809108828E+01
(PID.TID 0000.0001) %MON dynstat_salt_sd              =   2.7004667673472E-01
(PID.TID 0000.0001) %MON dynstat_salt_del2            =   2.4481561895860E-06
(PID.TID 0000.0001) %MON advcfl_uvel_max              =   7.0280174368261E-03
(PID.TID 0000.0001) %MON advcfl_vvel_max              =   3.8008040147206E-03
(PID.TID 0000.0001) %MON advcfl_wvel_max              =   1.5550074797793E-02
(PID.TID 0000.0001) %MON advcfl_W_hf_max              =   1.5550074797793E-02
(PID.TID 0000.0001) %MON pe_b_mean                    =  -6.8098044117837E-01
(PID.TID 0000.0001) %MON ke_max                       =   2.3249184456343E-03
(PID.TID 0000.0001) %MON ke_mean                      =   2.4491428903864E-06
(PID.TID 0000.0001) %MON ke_vol                       =   4.6183263906769E+12
(PID.TID 0000.0001) // =======================================================
(PID.TID 0000.0001) // End MONITOR dynamic field statistics
(PID.TID 0000.0001) // =======================================================
(PID.TID 0000.0001) // =======================================================
(PID.TID 0000.0001) // Begin OBCS MONITOR field statistics
(PID.TID 0000.0001) // =======================================================
(PID.TID 0000.0001) %MON obc_N_vVel_max               =   8.2898552642718E-08
(PID.TID 0000.0001) %MON obc_N_vVel_min               =   8.2898552642718E-08
(PID.TID 0000.0001) %MON obc_N_vVel_mean              =   8.2898552642718E-08
(PID.TID 0000.0001) %MON obc_N_vVel_sd                =  -1.0412963948917E-28
(PID.TID 0000.0001) %MON obc_N_vVel_Int               =   5.4713044744194E+00
(PID.TID 0000.0001) // =======================================================
(PID.TID 0000.0001) // End OBCS MONITOR field statistics
(PID.TID 0000.0001) // =======================================================
 cg2d: Sum(rhs),rhsMax =   3.00466532980872E+00  4.53036781959411E+02
(PID.TID 0000.0001)      cg2d_init_res =   6.75289652738224E-06
(PID.TID 0000.0001)      cg2d_iters(min,last) =      -1      79
(PID.TID 0000.0001)      cg2d_last_res =   9.73653389850258E-12
(PID.TID 0000.0001) // =======================================================
(PID.TID 0000.0001) // Begin MONITOR dynamic field statistics
(PID.TID 0000.0001) // =======================================================
(PID.TID 0000.0001) %MON time_tsnumber                =                  1551
(PID.TID 0000.0001) %MON time_secondsf                =   1.5510000000000E+05
(PID.TID 0000.0001) %MON dynstat_eta_max              =   5.7998508932127E+00
(PID.TID 0000.0001) %MON dynstat_eta_min              =  -1.4163827426933E+01
(PID.TID 0000.0001) %MON dynstat_eta_mean             =  -2.5207850220029E+00
(PID.TID 0000.0001) %MON dynstat_eta_sd               =   4.9401319718130E+00
(PID.TID 0000.0001) %MON dynstat_eta_del2             =   1.9059762419386E-01
(PID.TID 0000.0001) %MON dynstat_uvel_max             =   1.5612563710918E-02
(PID.TID 0000.0001) %MON dynstat_uvel_min             =  -7.0414083214185E-02
(PID.TID 0000.0001) %MON dynstat_uvel_mean            =   7.1200409974483E-09
(PID.TID 0000.0001) %MON dynstat_uvel_sd              =   2.0553489443825E-03
(PID.TID 0000.0001) %MON dynstat_uvel_del2            =   3.2427331650472E-06
(PID.TID 0000.0001) %MON dynstat_vvel_max             =   3.8050864886773E-02
(PID.TID 0000.0001) %MON dynstat_vvel_min             =  -2.1768934427618E-02
(PID.TID 0000.0001) %MON dynstat_vvel_mean            =   1.4270376323430E-07
(PID.TID 0000.0001) %MON dynstat_vvel_sd              =   8.7922387373940E-04
(PID.TID 0000.0001) %MON dynstat_vvel_del2            =   2.2462433669585E-06
(PID.TID 0000.0001) %MON dynstat_wvel_max             =   2.5597968935125E-03
(PID.TID 0000.0001) %MON dynstat_wvel_min             =  -3.1119778450297E-03
(PID.TID 0000.0001) %MON dynstat_wvel_mean            =   5.5755533693989E-10
(PID.TID 0000.0001) %MON dynstat_wvel_sd              =   4.3467331990039E-05
(PID.TID 0000.0001) %MON dynstat_wvel_del2            =   1.5979172458895E-07
(PID.TID 0000.0001) %MON dynstat_theta_max            =   1.2000000000000E+00
(PID.TID 0000.0001) %MON dynstat_theta_min            =  -1.0000000000000E+00
(PID.TID 0000.0001) %MON dynstat_theta_mean           =   5.6473611864771E-01
(PID.TID 0000.0001) %MON dynstat_theta_sd             =   8.4876347320282E-01
(PID.TID 0000.0001) %MON dynstat_theta_del2           =   6.1856025378525E-06
(PID.TID 0000.0001) %MON dynstat_salt_max             =   3.4700000000000E+01
(PID.TID 0000.0001) %MON dynstat_salt_min             =   3.4000000000000E+01
(PID.TID 0000.0001) %MON dynstat_salt_mean            =   3.4497808558606E+01
(PID.TID 0000.0001) %MON dynstat_salt_sd              =   2.7004645429037E-01
(PID.TID 0000.0001) %MON dynstat_salt_del2            =   2.4520880999452E-06
(PID.TID 0000.0001) %MON advcfl_uvel_max              =   7.0414083214185E-03
(PID.TID 0000.0001) %MON advcfl_vvel_max              =   3.8050864886773E-03
(PID.TID 0000.0001) %MON advcfl_wvel_max              =   1.5559889225149E-02
(PID.TID 0000.0001) %MON advcfl_W_hf_max              =   1.5559889225149E-02
(PID.TID 0000.0001) %MON pe_b_mean                    =  -6.8097672429753E-01
(PID.TID 0000.0001) %MON ke_max                       =   2.3343375910904E-03
(PID.TID 0000.0001) %MON ke_mean                      =   2.4590292934517E-06
(PID.TID 0000.0001) %MON ke_vol                       =   4.6183264637643E+12
(PID.TID 0000.0001) // =======================================================
(PID.TID 0000.0001) // End MONITOR dynamic field statistics
(PID.TID 0000.0001) // =======================================================
(PID.TID 0000.0001) // =======================================================
(PID.TID 0000.0001) // Begin OBCS MONITOR field statistics
(PID.TID 0000.0001) // =======================================================
(PID.TID 0000.0001) %MON obc_N_vVel_max               =   8.3327510523583E-08
(PID.TID 0000.0001) %MON obc_N_vVel_min               =   8.3327510523580E-08
(PID.TID 0000.0001) %MON obc_N_vVel_mean              =   8.3327510523580E-08
(PID.TID 0000.0001) %MON obc_N_vVel_sd                =   2.1972320632907E-14
(PID.TID 0000.0001) %MON obc_N_vVel_Int               =   5.4996156945563E+00
(PID.TID 0000.0001) // =======================================================
(PID.TID 0000.0001) // End OBCS MONITOR field statistics
(PID.TID 0000.0001) // =======================================================
 cg2d: Sum(rhs),rhsMax =   3.00465077080716E+00  4.53036758753153E+02
(PID.TID 0000.0001)      cg2d_init_res =   6.76239491929078E-06
(PID.TID 0000.0001)      cg2d_iters(min,last) =      -1      79
(PID.TID 0000.0001)      cg2d_last_res =   9.75558530322775E-12
(PID.TID 0000.0001) // =======================================================
(PID.TID 0000.0001) // Begin MONITOR dynamic field statistics
(PID.TID 0000.0001) // =======================================================
(PID.TID 0000.0001) %MON time_tsnumber                =                  1552
(PID.TID 0000.0001) %MON time_secondsf                =   1.5520000000000E+05
(PID.TID 0000.0001) %MON dynstat_eta_max              =   5.7998543960086E+00
(PID.TID 0000.0001) %MON dynstat_eta_min              =  -1.4163823893575E+01
(PID.TID 0000.0001) %MON dynstat_eta_mean             =  -2.5207726785030E+00
(PID.TID 0000.0001) %MON dynstat_eta_sd               =   4.9401284087823E+00
(PID.TID 0000.0001) %MON dynstat_eta_del2             =   1.9059766112877E-01
(PID.TID 0000.0001) %MON dynstat_uvel_max             =   1.5643463790758E-02
(PID.TID 0000.0001) %MON dynstat_uvel_min             =  -7.0548079534710E-02
(PID.TID 0000.0001) %MON dynstat_uvel_mean            =   7.1220458854514E-09
(PID.TID 0000.0001) %MON dynstat_uvel_sd              =   2.0595605442228E-03
(PID.TID 0000.0001) %MON dynstat_uvel_del2            =   3.2499143345057E-06
(PID.TID 0000.0001) %MON dynstat_vvel_max             =   3.8093682233549E-02
(PID.TID 0000.0001) %MON dynstat_vvel_min             =  -2.1816047328453E-02
(PID.TID 0000.0001) %MON dynstat_vvel_mean            =   1.4386978092711E-07
(PID.TID 0000.0001) %MON dynstat_vvel_sd              =   8.8083448696864E-04
(PID.TID 0000.0001) %MON dynstat_vvel_del2            =   2.2498899034547E-06
(PID.TID 0000.0001) %MON dynstat_wvel_max             =   2.5633875887424E-03
(PID.TID 0000.0001) %MON dynstat_wvel_min             =  -3.1139145390162E-03
(PID.TID 0000.0001) %MON dynstat_wvel_mean            =   5.6093750369168E-10
(PID.TID 0000.0001) %MON dynstat_wvel_sd              =   4.3531958038496E-05
(PID.TID 0000.0001) %MON dynstat_wvel_del2            =   1.5997677079149E-07
(PID.TID 0000.0001) %MON dynstat_theta_max            =   1.2000000000000E+00
(PID.TID 0000.0001) %MON dynstat_theta_min            =  -1.0000000000000E+00
(PID.TID 0000.0001) %MON dynstat_theta_mean           =   5.6473474062815E-01
(PID.TID 0000.0001) %MON dynstat_theta_sd             =   8.4876287548665E-01
(PID.TID 0000.0001) %MON dynstat_theta_del2           =   6.1954963743946E-06
(PID.TID 0000.0001) %MON dynstat_salt_max             =   3.4700000000000E+01
(PID.TID 0000.0001) %MON dynstat_salt_min             =   3.4000000000000E+01
(PID.TID 0000.0001) %MON dynstat_salt_mean            =   3.4497808007486E+01
(PID.TID 0000.0001) %MON dynstat_salt_sd              =   2.7004623157506E-01
(PID.TID 0000.0001) %MON dynstat_salt_del2            =   2.4560205105433E-06
(PID.TID 0000.0001) %MON advcfl_uvel_max              =   7.0548079534710E-03
(PID.TID 0000.0001) %MON advcfl_vvel_max              =   3.8093682233549E-03
(PID.TID 0000.0001) %MON advcfl_wvel_max              =   1.5569572695081E-02
(PID.TID 0000.0001) %MON advcfl_W_hf_max              =   1.5569572695081E-02
(PID.TID 0000.0001) %MON pe_b_mean                    =  -6.8097300154361E-01
(PID.TID 0000.0001) %MON ke_max                       =   2.3437815594007E-03
(PID.TID 0000.0001) %MON ke_mean                      =   2.4689489254619E-06
(PID.TID 0000.0001) %MON ke_vol                       =   4.6183265369693E+12
(PID.TID 0000.0001) // =======================================================
(PID.TID 0000.0001) // End MONITOR dynamic field statistics
(PID.TID 0000.0001) // =======================================================
(PID.TID 0000.0001) // =======================================================
(PID.TID 0000.0001) // Begin OBCS MONITOR field statistics
(PID.TID 0000.0001) // =======================================================
(PID.TID 0000.0001) %MON obc_N_vVel_max               =   8.4113497375967E-08
(PID.TID 0000.0001) %MON obc_N_vVel_min               =   8.4113497375966E-08
(PID.TID 0000.0001) %MON obc_N_vVel_mean              =   8.4113497375966E-08
(PID.TID 0000.0001) %MON obc_N_vVel_sd                =   5.1789256393112E-15
(PID.TID 0000.0001) %MON obc_N_vVel_Int               =   5.5514908268137E+00
(PID.TID 0000.0001) // =======================================================
(PID.TID 0000.0001) // End OBCS MONITOR field statistics
(PID.TID 0000.0001) // =======================================================
 cg2d: Sum(rhs),rhsMax =   3.00463618896579E+00  4.53036735564840E+02
(PID.TID 0000.0001)      cg2d_init_res =   6.77184137436363E-06
(PID.TID 0000.0001)      cg2d_iters(min,last) =      -1      79
(PID.TID 0000.0001)      cg2d_last_res =   9.77461284651417E-12
(PID.TID 0000.0001) // =======================================================
(PID.TID 0000.0001) // Begin MONITOR dynamic field statistics
(PID.TID 0000.0001) // =======================================================
(PID.TID 0000.0001) %MON time_tsnumber                =                  1553
(PID.TID 0000.0001) %MON time_secondsf                =   1.5530000000000E+05
(PID.TID 0000.0001) %MON dynstat_eta_max              =   5.7998579021776E+00
(PID.TID 0000.0001) %MON dynstat_eta_min              =  -1.4163820359423E+01
(PID.TID 0000.0001) %MON dynstat_eta_mean             =  -2.5207603159427E+00
(PID.TID 0000.0001) %MON dynstat_eta_sd               =   4.9401248403259E+00
(PID.TID 0000.0001) %MON dynstat_eta_del2             =   1.9059769811297E-01
(PID.TID 0000.0001) %MON dynstat_uvel_max             =   1.5674390419481E-02
(PID.TID 0000.0001) %MON dynstat_uvel_min             =  -7.0682163393784E-02
(PID.TID 0000.0001) %MON dynstat_uvel_mean            =   7.1247776359516E-09
(PID.TID 0000.0001) %MON dynstat_uvel_sd              =   2.0637777925049E-03
(PID.TID 0000.0001) %MON dynstat_uvel_del2            =   3.2571084007856E-06
(PID.TID 0000.0001) %MON dynstat_vvel_max             =   3.8136492048051E-02
(PID.TID 0000.0001) %MON dynstat_vvel_min             =  -2.1863146199662E-02
(PID.TID 0000.0001) %MON dynstat_vvel_mean            =   1.4538320893906E-07
(PID.TID 0000.0001) %MON dynstat_vvel_sd              =   8.8244723304521E-04
(PID.TID 0000.0001) %MON dynstat_vvel_del2            =   2.2535400780053E-06
(PID.TID 0000.0001) %MON dynstat_wvel_max             =   2.5669772788823E-03
(PID.TID 0000.0001) %MON dynstat_wvel_min             =  -3.1158251943257E-03
(PID.TID 0000.0001) %MON dynstat_wvel_mean            =   5.6412755390848E-10
(PID.TID 0000.0001) %MON dynstat_wvel_sd              =   4.3596317878324E-05
(PID.TID 0000.0001) %MON dynstat_wvel_del2            =   1.6016131943523E-07
(PID.TID 0000.0001) %MON dynstat_theta_max            =   1.2000000000000E+00
(PID.TID 0000.0001) %MON dynstat_theta_min            =  -1.0000000000000E+00
(PID.TID 0000.0001) %MON dynstat_theta_mean           =   5.6473336036355E-01
(PID.TID 0000.0001) %MON dynstat_theta_sd             =   8.4876227699248E-01
(PID.TID 0000.0001) %MON dynstat_theta_del2           =   6.2054001936394E-06
(PID.TID 0000.0001) %MON dynstat_salt_max             =   3.4700000000000E+01
(PID.TID 0000.0001) %MON dynstat_salt_min             =   3.4000000000000E+01
(PID.TID 0000.0001) %MON dynstat_salt_mean            =   3.4497807455467E+01
(PID.TID 0000.0001) %MON dynstat_salt_sd              =   2.7004600859116E-01
(PID.TID 0000.0001) %MON dynstat_salt_del2            =   2.4599559815642E-06
(PID.TID 0000.0001) %MON advcfl_uvel_max              =   7.0682163393784E-03
(PID.TID 0000.0001) %MON advcfl_vvel_max              =   3.8136492048051E-03
(PID.TID 0000.0001) %MON advcfl_wvel_max              =   1.5579125971628E-02
(PID.TID 0000.0001) %MON advcfl_W_hf_max              =   1.5579125971628E-02
(PID.TID 0000.0001) %MON pe_b_mean                    =  -6.8096927298409E-01
(PID.TID 0000.0001) %MON ke_max                       =   2.3532503121364E-03
(PID.TID 0000.0001) %MON ke_mean                      =   2.4789018757157E-06
(PID.TID 0000.0001) %MON ke_vol                       =   4.6183266102897E+12
(PID.TID 0000.0001) // =======================================================
(PID.TID 0000.0001) // End MONITOR dynamic field statistics
(PID.TID 0000.0001) // =======================================================
(PID.TID 0000.0001) // =======================================================
(PID.TID 0000.0001) // Begin OBCS MONITOR field statistics
(PID.TID 0000.0001) // =======================================================
(PID.TID 0000.0001) %MON obc_N_vVel_max               =   8.5241537449165E-08
(PID.TID 0000.0001) %MON obc_N_vVel_min               =   8.5241537449162E-08
(PID.TID 0000.0001) %MON obc_N_vVel_mean              =   8.5241537449162E-08
(PID.TID 0000.0001) %MON obc_N_vVel_sd                =   2.0175535360779E-14
(PID.TID 0000.0001) %MON obc_N_vVel_Int               =   5.6259414716447E+00
(PID.TID 0000.0001) // =======================================================
(PID.TID 0000.0001) // End OBCS MONITOR field statistics
(PID.TID 0000.0001) // =======================================================
 cg2d: Sum(rhs),rhsMax =   3.00462158469495E+00  4.53036712393258E+02
(PID.TID 0000.0001)      cg2d_init_res =   6.78144460215359E-06
(PID.TID 0000.0001)      cg2d_iters(min,last) =      -1      79
(PID.TID 0000.0001)      cg2d_last_res =   9.79309701967310E-12
(PID.TID 0000.0001) // =======================================================
(PID.TID 0000.0001) // Begin MONITOR dynamic field statistics
(PID.TID 0000.0001) // =======================================================
(PID.TID 0000.0001) %MON time_tsnumber                =                  1554
(PID.TID 0000.0001) %MON time_secondsf                =   1.5540000000000E+05
(PID.TID 0000.0001) %MON dynstat_eta_max              =   5.7998614113534E+00
(PID.TID 0000.0001) %MON dynstat_eta_min              =  -1.4163816825068E+01
(PID.TID 0000.0001) %MON dynstat_eta_mean             =  -2.5207479346593E+00
(PID.TID 0000.0001) %MON dynstat_eta_sd               =   4.9401212665874E+00
(PID.TID 0000.0001) %MON dynstat_eta_del2             =   1.9059773515043E-01
(PID.TID 0000.0001) %MON dynstat_uvel_max             =   1.5705343714581E-02
(PID.TID 0000.0001) %MON dynstat_uvel_min             =  -7.0816334859824E-02
(PID.TID 0000.0001) %MON dynstat_uvel_mean            =   7.1286409375821E-09
(PID.TID 0000.0001) %MON dynstat_uvel_sd              =   2.0680006854222E-03
(PID.TID 0000.0001) %MON dynstat_uvel_del2            =   3.2643153712807E-06
(PID.TID 0000.0001) %MON dynstat_vvel_max             =   3.8179294189224E-02
(PID.TID 0000.0001) %MON dynstat_vvel_min             =  -2.1910229853660E-02
(PID.TID 0000.0001) %MON dynstat_vvel_mean            =   1.4721494062740E-07
(PID.TID 0000.0001) %MON dynstat_vvel_sd              =   8.8406212630309E-04
(PID.TID 0000.0001) %MON dynstat_vvel_del2            =   2.2571939037429E-06
(PID.TID 0000.0001) %MON dynstat_wvel_max             =   2.5705659394371E-03
(PID.TID 0000.0001) %MON dynstat_wvel_min             =  -3.1177097691251E-03
(PID.TID 0000.0001) %MON dynstat_wvel_mean            =   5.6706665324824E-10
(PID.TID 0000.0001) %MON dynstat_wvel_sd              =   4.3660441321666E-05
(PID.TID 0000.0001) %MON dynstat_wvel_del2            =   1.6034534732648E-07
(PID.TID 0000.0001) %MON dynstat_theta_max            =   1.2000000000000E+00
(PID.TID 0000.0001) %MON dynstat_theta_min            =  -1.0000000000000E+00
(PID.TID 0000.0001) %MON dynstat_theta_mean           =   5.6473197785230E-01
(PID.TID 0000.0001) %MON dynstat_theta_sd             =   8.4876167771978E-01
(PID.TID 0000.0001) %MON dynstat_theta_del2           =   6.2153110400321E-06
(PID.TID 0000.0001) %MON dynstat_salt_max             =   3.4700000000000E+01
(PID.TID 0000.0001) %MON dynstat_salt_min             =   3.4000000000000E+01
(PID.TID 0000.0001) %MON dynstat_salt_mean            =   3.4497806902548E+01
(PID.TID 0000.0001) %MON dynstat_salt_sd              =   2.7004578533895E-01
(PID.TID 0000.0001) %MON dynstat_salt_del2            =   2.4638953400565E-06
(PID.TID 0000.0001) %MON advcfl_uvel_max              =   7.0816334859824E-03
(PID.TID 0000.0001) %MON advcfl_vvel_max              =   3.8179294189225E-03
(PID.TID 0000.0001) %MON advcfl_wvel_max              =   1.5588548845626E-02
(PID.TID 0000.0001) %MON advcfl_W_hf_max              =   1.5588548845626E-02
(PID.TID 0000.0001) %MON pe_b_mean                    =  -6.8096553867976E-01
(PID.TID 0000.0001) %MON ke_max                       =   2.3627438075946E-03
(PID.TID 0000.0001) %MON ke_mean                      =   2.4888882295967E-06
(PID.TID 0000.0001) %MON ke_vol                       =   4.6183266837233E+12
(PID.TID 0000.0001) // =======================================================
(PID.TID 0000.0001) // End MONITOR dynamic field statistics
(PID.TID 0000.0001) // =======================================================
(PID.TID 0000.0001) // =======================================================
(PID.TID 0000.0001) // Begin OBCS MONITOR field statistics
(PID.TID 0000.0001) // =======================================================
(PID.TID 0000.0001) %MON obc_N_vVel_max               =   8.6689096120322E-08
(PID.TID 0000.0001) %MON obc_N_vVel_min               =   8.6689096120320E-08
(PID.TID 0000.0001) %MON obc_N_vVel_mean              =   8.6689096120322E-08
(PID.TID 0000.0001) %MON obc_N_vVel_sd                =  -1.7670484276951E-28
(PID.TID 0000.0001) %MON obc_N_vVel_Int               =   5.7214803439412E+00
(PID.TID 0000.0001) // =======================================================
(PID.TID 0000.0001) // End OBCS MONITOR field statistics
(PID.TID 0000.0001) // =======================================================
 cg2d: Sum(rhs),rhsMax =   3.00460695837249E+00  4.53036689236139E+02
(PID.TID 0000.0001)      cg2d_init_res =   6.79120006889822E-06
(PID.TID 0000.0001)      cg2d_iters(min,last) =      -1      79
(PID.TID 0000.0001)      cg2d_last_res =   9.81138935676028E-12
(PID.TID 0000.0001) // =======================================================
(PID.TID 0000.0001) // Begin MONITOR dynamic field statistics
(PID.TID 0000.0001) // =======================================================
(PID.TID 0000.0001) %MON time_tsnumber                =                  1555
(PID.TID 0000.0001) %MON time_secondsf                =   1.5550000000000E+05
(PID.TID 0000.0001) %MON dynstat_eta_max              =   5.7998649232288E+00
(PID.TID 0000.0001) %MON dynstat_eta_min              =  -1.4163813291029E+01
(PID.TID 0000.0001) %MON dynstat_eta_mean             =  -2.5207355349573E+00
(PID.TID 0000.0001) %MON dynstat_eta_sd               =   4.9401176876321E+00
(PID.TID 0000.0001) %MON dynstat_eta_del2             =   1.9059777224130E-01
(PID.TID 0000.0001) %MON dynstat_uvel_max             =   1.5736323584601E-02
(PID.TID 0000.0001) %MON dynstat_uvel_min             =  -7.0950593977674E-02
(PID.TID 0000.0001) %MON dynstat_uvel_mean            =   7.1340194912720E-09
(PID.TID 0000.0001) %MON dynstat_uvel_sd              =   2.0722292188608E-03
(PID.TID 0000.0001) %MON dynstat_uvel_del2            =   3.2715352599699E-06
(PID.TID 0000.0001) %MON dynstat_vvel_max             =   3.8222088514709E-02
(PID.TID 0000.0001) %MON dynstat_vvel_min             =  -2.1957297124459E-02
(PID.TID 0000.0001) %MON dynstat_vvel_mean            =   1.4932900249374E-07
(PID.TID 0000.0001) %MON dynstat_vvel_sd              =   8.8567918418735E-04
(PID.TID 0000.0001) %MON dynstat_vvel_del2            =   2.2608514025817E-06
(PID.TID 0000.0001) %MON dynstat_wvel_max             =   2.5741535459689E-03
(PID.TID 0000.0001) %MON dynstat_wvel_min             =  -3.1195681637089E-03
(PID.TID 0000.0001) %MON dynstat_wvel_mean            =   5.6971231241336E-10
(PID.TID 0000.0001) %MON dynstat_wvel_sd              =   4.3724366018640E-05
(PID.TID 0000.0001) %MON dynstat_wvel_del2            =   1.6052883486625E-07
(PID.TID 0000.0001) %MON dynstat_theta_max            =   1.2000000000000E+00
(PID.TID 0000.0001) %MON dynstat_theta_min            =  -1.0000000000000E+00
(PID.TID 0000.0001) %MON dynstat_theta_mean           =   5.6473059309265E-01
(PID.TID 0000.0001) %MON dynstat_theta_sd             =   8.4876107767015E-01
(PID.TID 0000.0001) %MON dynstat_theta_del2           =   6.2252315835027E-06
(PID.TID 0000.0001) %MON dynstat_salt_max             =   3.4700000000000E+01
(PID.TID 0000.0001) %MON dynstat_salt_min             =   3.4000000000000E+01
(PID.TID 0000.0001) %MON dynstat_salt_mean            =   3.4497806348728E+01
(PID.TID 0000.0001) %MON dynstat_salt_sd              =   2.7004556181877E-01
(PID.TID 0000.0001) %MON dynstat_salt_del2            =   2.4678384375390E-06
(PID.TID 0000.0001) %MON advcfl_uvel_max              =   7.0950593977674E-03
(PID.TID 0000.0001) %MON advcfl_vvel_max              =   3.8222088514709E-03
(PID.TID 0000.0001) %MON advcfl_wvel_max              =   1.5597840818544E-02
(PID.TID 0000.0001) %MON advcfl_W_hf_max              =   1.5597840818544E-02
(PID.TID 0000.0001) %MON pe_b_mean                    =  -6.8096179868327E-01
(PID.TID 0000.0001) %MON ke_max                       =   2.3722620019342E-03
(PID.TID 0000.0001) %MON ke_mean                      =   2.4989080747543E-06
(PID.TID 0000.0001) %MON ke_vol                       =   4.6183267572681E+12
(PID.TID 0000.0001) // =======================================================
(PID.TID 0000.0001) // End MONITOR dynamic field statistics
(PID.TID 0000.0001) // =======================================================
(PID.TID 0000.0001) // =======================================================
(PID.TID 0000.0001) // Begin OBCS MONITOR field statistics
(PID.TID 0000.0001) // =======================================================
(PID.TID 0000.0001) %MON obc_N_vVel_max               =   8.8426673002083E-08
(PID.TID 0000.0001) %MON obc_N_vVel_min               =   8.8426673002080E-08
(PID.TID 0000.0001) %MON obc_N_vVel_mean              =   8.8426673002083E-08
(PID.TID 0000.0001) %MON obc_N_vVel_sd                =  -4.9382692666835E-28
(PID.TID 0000.0001) %MON obc_N_vVel_Int               =   5.8361604181375E+00
(PID.TID 0000.0001) // =======================================================
(PID.TID 0000.0001) // End OBCS MONITOR field statistics
(PID.TID 0000.0001) // =======================================================
 cg2d: Sum(rhs),rhsMax =   3.00459231033610E+00  4.53036666090218E+02
(PID.TID 0000.0001)      cg2d_init_res =   6.80093990105347E-06
(PID.TID 0000.0001)      cg2d_iters(min,last) =      -1      79
(PID.TID 0000.0001)      cg2d_last_res =   9.82989744326062E-12
(PID.TID 0000.0001) // =======================================================
(PID.TID 0000.0001) // Begin MONITOR dynamic field statistics
(PID.TID 0000.0001) // =======================================================
(PID.TID 0000.0001) %MON time_tsnumber                =                  1556
(PID.TID 0000.0001) %MON time_secondsf                =   1.5560000000000E+05
(PID.TID 0000.0001) %MON dynstat_eta_max              =   5.7998684375487E+00
(PID.TID 0000.0001) %MON dynstat_eta_min              =  -1.4163809757764E+01
(PID.TID 0000.0001) %MON dynstat_eta_mean             =  -2.5207231171018E+00
(PID.TID 0000.0001) %MON dynstat_eta_sd               =   4.9401141035181E+00
(PID.TID 0000.0001) %MON dynstat_eta_del2             =   1.9059780938570E-01
(PID.TID 0000.0001) %MON dynstat_uvel_max             =   1.5767329922910E-02
(PID.TID 0000.0001) %MON dynstat_uvel_min             =  -7.1084940814419E-02
(PID.TID 0000.0001) %MON dynstat_uvel_mean            =   7.1412916272059E-09
(PID.TID 0000.0001) %MON dynstat_uvel_sd              =   2.0764633888535E-03
(PID.TID 0000.0001) %MON dynstat_uvel_del2            =   3.2787680685106E-06
(PID.TID 0000.0001) %MON dynstat_vvel_max             =   3.8264874880220E-02
(PID.TID 0000.0001) %MON dynstat_vvel_min             =  -2.2004346779454E-02
(PID.TID 0000.0001) %MON dynstat_vvel_mean            =   1.5168349495335E-07
(PID.TID 0000.0001) %MON dynstat_vvel_sd              =   8.8729842644798E-04
(PID.TID 0000.0001) %MON dynstat_vvel_del2            =   2.2645125964137E-06
(PID.TID 0000.0001) %MON dynstat_wvel_max             =   2.5777400739479E-03
(PID.TID 0000.0001) %MON dynstat_wvel_min             =  -3.1214002864137E-03
(PID.TID 0000.0001) %MON dynstat_wvel_mean            =   5.7202648249982E-10
(PID.TID 0000.0001) %MON dynstat_wvel_sd              =   4.3788136875439E-05
(PID.TID 0000.0001) %MON dynstat_wvel_del2            =   1.6071178260312E-07
(PID.TID 0000.0001) %MON dynstat_theta_max            =   1.2000000000000E+00
(PID.TID 0000.0001) %MON dynstat_theta_min            =  -1.0000000000000E+00
(PID.TID 0000.0001) %MON dynstat_theta_mean           =   5.6472920608282E-01
(PID.TID 0000.0001) %MON dynstat_theta_sd             =   8.4876047681690E-01
(PID.TID 0000.0001) %MON dynstat_theta_del2           =   6.2352845407139E-06
(PID.TID 0000.0001) %MON dynstat_salt_max             =   3.4700000000000E+01
(PID.TID 0000.0001) %MON dynstat_salt_min             =   3.4000000000000E+01
(PID.TID 0000.0001) %MON dynstat_salt_mean            =   3.4497805794008E+01
(PID.TID 0000.0001) %MON dynstat_salt_sd              =   2.7004533802986E-01
(PID.TID 0000.0001) %MON dynstat_salt_del2            =   2.4717965988942E-06
(PID.TID 0000.0001) %MON advcfl_uvel_max              =   7.1084940814419E-03
(PID.TID 0000.0001) %MON advcfl_vvel_max              =   3.8264874880220E-03
(PID.TID 0000.0001) %MON advcfl_wvel_max              =   1.5607001432069E-02
(PID.TID 0000.0001) %MON advcfl_W_hf_max              =   1.5607001432069E-02
(PID.TID 0000.0001) %MON pe_b_mean                    =  -6.8095805303809E-01
(PID.TID 0000.0001) %MON ke_max                       =   2.3818048505454E-03
(PID.TID 0000.0001) %MON ke_mean                      =   2.5089615013343E-06
(PID.TID 0000.0001) %MON ke_vol                       =   4.6183268309224E+12
(PID.TID 0000.0001) // =======================================================
(PID.TID 0000.0001) // End MONITOR dynamic field statistics
(PID.TID 0000.0001) // =======================================================
(PID.TID 0000.0001) // =======================================================
(PID.TID 0000.0001) // Begin OBCS MONITOR field statistics
(PID.TID 0000.0001) // =======================================================
(PID.TID 0000.0001) %MON obc_N_vVel_max               =   9.0418537466045E-08
(PID.TID 0000.0001) %MON obc_N_vVel_min               =   9.0418537466042E-08
(PID.TID 0000.0001) %MON obc_N_vVel_mean              =   9.0418537466045E-08
(PID.TID 0000.0001) %MON obc_N_vVel_sd                =  -4.9856009209968E-28
(PID.TID 0000.0001) %MON obc_N_vVel_Int               =   5.9676234727590E+00
(PID.TID 0000.0001) // =======================================================
(PID.TID 0000.0001) // End OBCS MONITOR field statistics
(PID.TID 0000.0001) // =======================================================
 cg2d: Sum(rhs),rhsMax =   3.00457764087426E+00  4.53036642951303E+02
(PID.TID 0000.0001)      cg2d_init_res =   6.81072346152318E-06
(PID.TID 0000.0001)      cg2d_iters(min,last) =      -1      79
(PID.TID 0000.0001)      cg2d_last_res =   9.84849223446760E-12
(PID.TID 0000.0001) // =======================================================
(PID.TID 0000.0001) // Begin MONITOR dynamic field statistics
(PID.TID 0000.0001) // =======================================================
(PID.TID 0000.0001) %MON time_tsnumber                =                  1557
(PID.TID 0000.0001) %MON time_secondsf                =   1.5570000000000E+05
(PID.TID 0000.0001) %MON dynstat_eta_max              =   5.7998719541733E+00
(PID.TID 0000.0001) %MON dynstat_eta_min              =  -1.4163806225640E+01
(PID.TID 0000.0001) %MON dynstat_eta_mean             =  -2.5207106813115E+00
(PID.TID 0000.0001) %MON dynstat_eta_sd               =   4.9401105142695E+00
(PID.TID 0000.0001) %MON dynstat_eta_del2             =   1.9059784658350E-01
(PID.TID 0000.0001) %MON dynstat_uvel_max             =   1.5798362594481E-02
(PID.TID 0000.0001) %MON dynstat_uvel_min             =  -7.1219375427042E-02
(PID.TID 0000.0001) %MON dynstat_uvel_mean            =   7.1503637503257E-09
(PID.TID 0000.0001) %MON dynstat_uvel_sd              =   2.0807031891126E-03
(PID.TID 0000.0001) %MON dynstat_uvel_del2            =   3.2860138154758E-06
(PID.TID 0000.0001) %MON dynstat_vvel_max             =   3.8307674877875E-02
(PID.TID 0000.0001) %MON dynstat_vvel_min             =  -2.2051377602997E-02
(PID.TID 0000.0001) %MON dynstat_vvel_mean            =   1.5423161284881E-07
(PID.TID 0000.0001) %MON dynstat_vvel_sd              =   8.8891986233065E-04
(PID.TID 0000.0001) %MON dynstat_vvel_del2            =   2.2681775135598E-06
(PID.TID 0000.0001) %MON dynstat_wvel_max             =   2.5813257424486E-03
(PID.TID 0000.0001) %MON dynstat_wvel_min             =  -3.1232060485570E-03
(PID.TID 0000.0001) %MON dynstat_wvel_mean            =   5.7397115314202E-10
(PID.TID 0000.0001) %MON dynstat_wvel_sd              =   4.3851800274712E-05
(PID.TID 0000.0001) %MON dynstat_wvel_del2            =   1.6089419591366E-07
(PID.TID 0000.0001) %MON dynstat_theta_max            =   1.2000000000000E+00
(PID.TID 0000.0001) %MON dynstat_theta_min            =  -1.0000000000000E+00
(PID.TID 0000.0001) %MON dynstat_theta_mean           =   5.6472781682084E-01
(PID.TID 0000.0001) %MON dynstat_theta_sd             =   8.4875987521115E-01
(PID.TID 0000.0001) %MON dynstat_theta_del2           =   6.2452548135426E-06
(PID.TID 0000.0001) %MON dynstat_salt_max             =   3.4700000000000E+01
(PID.TID 0000.0001) %MON dynstat_salt_min             =   3.4000000000000E+01
(PID.TID 0000.0001) %MON dynstat_salt_mean            =   3.4497805238385E+01
(PID.TID 0000.0001) %MON dynstat_salt_sd              =   2.7004511397444E-01
(PID.TID 0000.0001) %MON dynstat_salt_del2            =   2.4757492891950E-06
(PID.TID 0000.0001) %MON advcfl_uvel_max              =   7.1219375427042E-03
(PID.TID 0000.0001) %MON advcfl_vvel_max              =   3.8307674877875E-03
(PID.TID 0000.0001) %MON advcfl_wvel_max              =   1.5616030242785E-02
(PID.TID 0000.0001) %MON advcfl_W_hf_max              =   1.5616030242785E-02
(PID.TID 0000.0001) %MON pe_b_mean                    =  -6.8095430177695E-01
(PID.TID 0000.0001) %MON ke_max                       =   2.3913723080206E-03
(PID.TID 0000.0001) %MON ke_mean                      =   2.5190485855758E-06
(PID.TID 0000.0001) %MON ke_vol                       =   4.6183269046844E+12
(PID.TID 0000.0001) // =======================================================
(PID.TID 0000.0001) // End MONITOR dynamic field statistics
(PID.TID 0000.0001) // =======================================================
(PID.TID 0000.0001) // =======================================================
(PID.TID 0000.0001) // Begin OBCS MONITOR field statistics
(PID.TID 0000.0001) // =======================================================
(PID.TID 0000.0001) %MON obc_N_vVel_max               =   9.2623592823225E-08
(PID.TID 0000.0001) %MON obc_N_vVel_min               =   9.2623592823223E-08
(PID.TID 0000.0001) %MON obc_N_vVel_mean              =   9.2623592823225E-08
(PID.TID 0000.0001) %MON obc_N_vVel_sd                =  -1.0255191767873E-28
(PID.TID 0000.0001) %MON obc_N_vVel_Int               =   6.1131571263329E+00
(PID.TID 0000.0001) // =======================================================
(PID.TID 0000.0001) // End OBCS MONITOR field statistics
(PID.TID 0000.0001) // =======================================================
 cg2d: Sum(rhs),rhsMax =   3.00456295022248E+00  4.53036619814362E+02
(PID.TID 0000.0001)      cg2d_init_res =   6.82038251741576E-06
(PID.TID 0000.0001)      cg2d_iters(min,last) =      -1      79
(PID.TID 0000.0001)      cg2d_last_res =   9.86656754870758E-12
(PID.TID 0000.0001) // =======================================================
(PID.TID 0000.0001) // Begin MONITOR dynamic field statistics
(PID.TID 0000.0001) // =======================================================
(PID.TID 0000.0001) %MON time_tsnumber                =                  1558
(PID.TID 0000.0001) %MON time_secondsf                =   1.5580000000000E+05
(PID.TID 0000.0001) %MON dynstat_eta_max              =   5.7998754730148E+00
(PID.TID 0000.0001) %MON dynstat_eta_min              =  -1.4163802694926E+01
(PID.TID 0000.0001) %MON dynstat_eta_mean             =  -2.5206982277560E+00
(PID.TID 0000.0001) %MON dynstat_eta_sd               =   4.9401069198978E+00
(PID.TID 0000.0001) %MON dynstat_eta_del2             =   1.9059788383424E-01
(PID.TID 0000.0001) %MON dynstat_uvel_max             =   1.5829421452234E-02
(PID.TID 0000.0001) %MON dynstat_uvel_min             =  -7.1353897878097E-02
(PID.TID 0000.0001) %MON dynstat_uvel_mean            =   7.1621726236926E-09
(PID.TID 0000.0001) %MON dynstat_uvel_sd              =   2.0849486138389E-03
(PID.TID 0000.0001) %MON dynstat_uvel_del2            =   3.2932725187786E-06
(PID.TID 0000.0001) %MON dynstat_vvel_max             =   3.8350505130534E-02
(PID.TID 0000.0001) %MON dynstat_vvel_min             =  -2.2098388362348E-02
(PID.TID 0000.0001) %MON dynstat_vvel_mean            =   1.5692212061513E-07
(PID.TID 0000.0001) %MON dynstat_vvel_sd              =   8.9054351161219E-04
(PID.TID 0000.0001) %MON dynstat_vvel_del2            =   2.2718461914745E-06
(PID.TID 0000.0001) %MON dynstat_wvel_max             =   2.5849107173082E-03
(PID.TID 0000.0001) %MON dynstat_wvel_min             =  -3.1249853628252E-03
(PID.TID 0000.0001) %MON dynstat_wvel_mean            =   5.7554213912677E-10
(PID.TID 0000.0001) %MON dynstat_wvel_sd              =   4.3915410115498E-05
(PID.TID 0000.0001) %MON dynstat_wvel_del2            =   1.6107611852753E-07
(PID.TID 0000.0001) %MON dynstat_theta_max            =   1.2000000000000E+00
(PID.TID 0000.0001) %MON dynstat_theta_min            =  -1.0000000000000E+00
(PID.TID 0000.0001) %MON dynstat_theta_mean           =   5.6472642530484E-01
(PID.TID 0000.0001) %MON dynstat_theta_sd             =   8.4875927283123E-01
(PID.TID 0000.0001) %MON dynstat_theta_del2           =   6.2552066149309E-06
(PID.TID 0000.0001) %MON dynstat_salt_max             =   3.4700000000000E+01
(PID.TID 0000.0001) %MON dynstat_salt_min             =   3.4000000000000E+01
(PID.TID 0000.0001) %MON dynstat_salt_mean            =   3.4497804681860E+01
(PID.TID 0000.0001) %MON dynstat_salt_sd              =   2.7004488964017E-01
(PID.TID 0000.0001) %MON dynstat_salt_del2            =   2.4797033415147E-06
(PID.TID 0000.0001) %MON advcfl_uvel_max              =   7.1353897878097E-03
(PID.TID 0000.0001) %MON advcfl_vvel_max              =   3.8350505130534E-03
(PID.TID 0000.0001) %MON advcfl_wvel_max              =   1.5624926814126E-02
(PID.TID 0000.0001) %MON advcfl_W_hf_max              =   1.5624926814126E-02
(PID.TID 0000.0001) %MON pe_b_mean                    =  -6.8095054492246E-01
(PID.TID 0000.0001) %MON ke_max                       =   2.4009643280232E-03
(PID.TID 0000.0001) %MON ke_mean                      =   2.5291694141578E-06
(PID.TID 0000.0001) %MON ke_vol                       =   4.6183269785530E+12
(PID.TID 0000.0001) // =======================================================
(PID.TID 0000.0001) // End MONITOR dynamic field statistics
(PID.TID 0000.0001) // =======================================================
(PID.TID 0000.0001) // =======================================================
(PID.TID 0000.0001) // Begin OBCS MONITOR field statistics
(PID.TID 0000.0001) // =======================================================
(PID.TID 0000.0001) %MON obc_N_vVel_max               =   9.4996358602521E-08
(PID.TID 0000.0001) %MON obc_N_vVel_min               =   9.4996358602518E-08
(PID.TID 0000.0001) %MON obc_N_vVel_mean              =   9.4996358602521E-08
(PID.TID 0000.0001) %MON obc_N_vVel_sd                =  -6.0426745339930E-28
(PID.TID 0000.0001) %MON obc_N_vVel_Int               =   6.2697596677664E+00
(PID.TID 0000.0001) // =======================================================
(PID.TID 0000.0001) // End OBCS MONITOR field statistics
(PID.TID 0000.0001) // =======================================================
 cg2d: Sum(rhs),rhsMax =   3.00454823855636E+00  4.53036596673606E+02
(PID.TID 0000.0001)      cg2d_init_res =   6.83011505043620E-06
(PID.TID 0000.0001)      cg2d_iters(min,last) =      -1      79
(PID.TID 0000.0001)      cg2d_last_res =   9.88482899980359E-12
(PID.TID 0000.0001) // =======================================================
(PID.TID 0000.0001) // Begin MONITOR dynamic field statistics
(PID.TID 0000.0001) // =======================================================
(PID.TID 0000.0001) %MON time_tsnumber                =                  1559
(PID.TID 0000.0001) %MON time_secondsf                =   1.5590000000000E+05
(PID.TID 0000.0001) %MON dynstat_eta_max              =   5.7998789940963E+00
(PID.TID 0000.0001) %MON dynstat_eta_min              =  -1.4163799165806E+01
(PID.TID 0000.0001) %MON dynstat_eta_mean             =  -2.5206857565505E+00
(PID.TID 0000.0001) %MON dynstat_eta_sd               =   4.9401033203878E+00
(PID.TID 0000.0001) %MON dynstat_eta_del2             =   1.9059792113793E-01
(PID.TID 0000.0001) %MON dynstat_uvel_max             =   1.5860506342025E-02
(PID.TID 0000.0001) %MON dynstat_uvel_min             =  -7.1488508229113E-02
(PID.TID 0000.0001) %MON dynstat_uvel_mean            =   7.1763883210230E-09
(PID.TID 0000.0001) %MON dynstat_uvel_sd              =   2.0891996615619E-03
(PID.TID 0000.0001) %MON dynstat_uvel_del2            =   3.3005441826007E-06
(PID.TID 0000.0001) %MON dynstat_vvel_max             =   3.8393346986398E-02
(PID.TID 0000.0001) %MON dynstat_vvel_min             =  -2.2145377813738E-02
(PID.TID 0000.0001) %MON dynstat_vvel_mean            =   1.5970224731616E-07
(PID.TID 0000.0001) %MON dynstat_vvel_sd              =   8.9216942445550E-04
(PID.TID 0000.0001) %MON dynstat_vvel_del2            =   2.2755186841529E-06
(PID.TID 0000.0001) %MON dynstat_wvel_max             =   2.5884947960717E-03
(PID.TID 0000.0001) %MON dynstat_wvel_min             =  -3.1267381439632E-03
(PID.TID 0000.0001) %MON dynstat_wvel_mean            =   5.7672681881086E-10
(PID.TID 0000.0001) %MON dynstat_wvel_sd              =   4.3979029964159E-05
(PID.TID 0000.0001) %MON dynstat_wvel_del2            =   1.6125765843089E-07
(PID.TID 0000.0001) %MON dynstat_theta_max            =   1.2000000000000E+00
(PID.TID 0000.0001) %MON dynstat_theta_min            =  -1.0000000000000E+00
(PID.TID 0000.0001) %MON dynstat_theta_mean           =   5.6472503153279E-01
(PID.TID 0000.0001) %MON dynstat_theta_sd             =   8.4875866962963E-01
(PID.TID 0000.0001) %MON dynstat_theta_del2           =   6.2651586852669E-06
(PID.TID 0000.0001) %MON dynstat_salt_max             =   3.4700000000000E+01
(PID.TID 0000.0001) %MON dynstat_salt_min             =   3.4000000000000E+01
(PID.TID 0000.0001) %MON dynstat_salt_mean            =   3.4497804124431E+01
(PID.TID 0000.0001) %MON dynstat_salt_sd              =   2.7004466502184E-01
(PID.TID 0000.0001) %MON dynstat_salt_del2            =   2.4836604617209E-06
(PID.TID 0000.0001) %MON advcfl_uvel_max              =   7.1488508229113E-03
(PID.TID 0000.0001) %MON advcfl_vvel_max              =   3.8393346986398E-03
(PID.TID 0000.0001) %MON advcfl_wvel_max              =   1.5633690719816E-02
(PID.TID 0000.0001) %MON advcfl_W_hf_max              =   1.5633690719816E-02
(PID.TID 0000.0001) %MON pe_b_mean                    =  -6.8094678248556E-01
(PID.TID 0000.0001) %MON ke_max                       =   2.4105808631491E-03
(PID.TID 0000.0001) %MON ke_mean                      =   2.5393241098795E-06
(PID.TID 0000.0001) %MON ke_vol                       =   4.6183270525271E+12
(PID.TID 0000.0001) // =======================================================
(PID.TID 0000.0001) // End MONITOR dynamic field statistics
(PID.TID 0000.0001) // =======================================================
(PID.TID 0000.0001) // =======================================================
(PID.TID 0000.0001) // Begin OBCS MONITOR field statistics
(PID.TID 0000.0001) // =======================================================
(PID.TID 0000.0001) %MON obc_N_vVel_max               =   9.7488009119783E-08
(PID.TID 0000.0001) %MON obc_N_vVel_min               =   9.7488009119780E-08
(PID.TID 0000.0001) %MON obc_N_vVel_mean              =   9.7488009119780E-08
(PID.TID 0000.0001) %MON obc_N_vVel_sd                =   2.4741787777998E-14
(PID.TID 0000.0001) %MON obc_N_vVel_Int               =   6.4342086019054E+00
(PID.TID 0000.0001) // =======================================================
(PID.TID 0000.0001) // End OBCS MONITOR field statistics
(PID.TID 0000.0001) // =======================================================
 cg2d: Sum(rhs),rhsMax =   3.00453350598767E+00  4.53036573522659E+02
(PID.TID 0000.0001)      cg2d_init_res =   6.83988126738151E-06
(PID.TID 0000.0001)      cg2d_iters(min,last) =      -1      79
(PID.TID 0000.0001)      cg2d_last_res =   9.90312429532981E-12
(PID.TID 0000.0001) // =======================================================
(PID.TID 0000.0001) // Begin MONITOR dynamic field statistics
(PID.TID 0000.0001) // =======================================================
(PID.TID 0000.0001) %MON time_tsnumber                =                  1560
(PID.TID 0000.0001) %MON time_secondsf                =   1.5600000000000E+05
(PID.TID 0000.0001) %MON dynstat_eta_max              =   5.7998825175356E+00
(PID.TID 0000.0001) %MON dynstat_eta_min              =  -1.4163795638343E+01
(PID.TID 0000.0001) %MON dynstat_eta_mean             =  -2.5206732677531E+00
(PID.TID 0000.0001) %MON dynstat_eta_sd               =   4.9400997157031E+00
(PID.TID 0000.0001) %MON dynstat_eta_del2             =   1.9059795849396E-01
(PID.TID 0000.0001) %MON dynstat_uvel_max             =   1.5891617103225E-02
(PID.TID 0000.0001) %MON dynstat_uvel_min             =  -7.1623206540835E-02
(PID.TID 0000.0001) %MON dynstat_uvel_mean            =   7.1928244978760E-09
(PID.TID 0000.0001) %MON dynstat_uvel_sd              =   2.0934563309962E-03
(PID.TID 0000.0001) %MON dynstat_uvel_del2            =   3.3078288081772E-06
(PID.TID 0000.0001) %MON dynstat_vvel_max             =   3.8436181037601E-02
(PID.TID 0000.0001) %MON dynstat_vvel_min             =  -2.2192344701526E-02
(PID.TID 0000.0001) %MON dynstat_vvel_mean            =   1.6251740568061E-07
(PID.TID 0000.0001) %MON dynstat_vvel_sd              =   8.9379765041493E-04
(PID.TID 0000.0001) %MON dynstat_vvel_del2            =   2.2791950514424E-06
(PID.TID 0000.0001) %MON dynstat_wvel_max             =   2.5920777887886E-03
(PID.TID 0000.0001) %MON dynstat_wvel_min             =  -3.1284643084273E-03
(PID.TID 0000.0001) %MON dynstat_wvel_mean            =   5.7752239233058E-10
(PID.TID 0000.0001) %MON dynstat_wvel_sd              =   4.4042725454506E-05
(PID.TID 0000.0001) %MON dynstat_wvel_del2            =   1.6143896042636E-07
(PID.TID 0000.0001) %MON dynstat_theta_max            =   1.2000000000000E+00
(PID.TID 0000.0001) %MON dynstat_theta_min            =  -1.0000000000000E+00
(PID.TID 0000.0001) %MON dynstat_theta_mean           =   5.6472363550258E-01
(PID.TID 0000.0001) %MON dynstat_theta_sd             =   8.4875806564649E-01
(PID.TID 0000.0001) %MON dynstat_theta_del2           =   6.2751181615365E-06
(PID.TID 0000.0001) %MON dynstat_salt_max             =   3.4700000000000E+01
(PID.TID 0000.0001) %MON dynstat_salt_min             =   3.4000000000000E+01
(PID.TID 0000.0001) %MON dynstat_salt_mean            =   3.4497803566097E+01
(PID.TID 0000.0001) %MON dynstat_salt_sd              =   2.7004444014250E-01
(PID.TID 0000.0001) %MON dynstat_salt_del2            =   2.4876215165509E-06
(PID.TID 0000.0001) %MON advcfl_uvel_max              =   7.1623206540835E-03
(PID.TID 0000.0001) %MON advcfl_vvel_max              =   3.8436181037601E-03
(PID.TID 0000.0001) %MON advcfl_wvel_max              =   1.5642321542137E-02
(PID.TID 0000.0001) %MON advcfl_W_hf_max              =   1.5642321542137E-02
(PID.TID 0000.0001) %MON pe_b_mean                    =  -6.8094301446546E-01
(PID.TID 0000.0001) %MON ke_max                       =   2.4202218650082E-03
(PID.TID 0000.0001) %MON ke_mean                      =   2.5495127957866E-06
(PID.TID 0000.0001) %MON ke_vol                       =   4.6183271266061E+12
(PID.TID 0000.0001) // =======================================================
(PID.TID 0000.0001) // End MONITOR dynamic field statistics
(PID.TID 0000.0001) // =======================================================
(PID.TID 0000.0001) // =======================================================
(PID.TID 0000.0001) // Begin OBCS MONITOR field statistics
(PID.TID 0000.0001) // =======================================================
(PID.TID 0000.0001) %MON obc_N_vVel_max               =   1.0004751558668E-07
(PID.TID 0000.0001) %MON obc_N_vVel_min               =   1.0004751558668E-07
(PID.TID 0000.0001) %MON obc_N_vVel_mean              =   1.0004751558668E-07
(PID.TID 0000.0001) %MON obc_N_vVel_sd                =   2.6734022894623E-14
(PID.TID 0000.0001) %MON obc_N_vVel_Int               =   6.6031360287208E+00
(PID.TID 0000.0001) // =======================================================
(PID.TID 0000.0001) // End OBCS MONITOR field statistics
(PID.TID 0000.0001) // =======================================================
 cg2d: Sum(rhs),rhsMax =   3.00451875256214E+00  4.53036550354673E+02
(PID.TID 0000.0001)      cg2d_init_res =   6.84967341608684E-06
(PID.TID 0000.0001)      cg2d_iters(min,last) =      -1      79
(PID.TID 0000.0001)      cg2d_last_res =   9.92123672759501E-12
(PID.TID 0000.0001) // =======================================================
(PID.TID 0000.0001) // Begin MONITOR dynamic field statistics
(PID.TID 0000.0001) // =======================================================
(PID.TID 0000.0001) %MON time_tsnumber                =                  1561
(PID.TID 0000.0001) %MON time_secondsf                =   1.5610000000000E+05
(PID.TID 0000.0001) %MON dynstat_eta_max              =   5.7998860435437E+00
(PID.TID 0000.0001) %MON dynstat_eta_min              =  -1.4163792112501E+01
(PID.TID 0000.0001) %MON dynstat_eta_mean             =  -2.5206607613642E+00
(PID.TID 0000.0001) %MON dynstat_eta_sd               =   4.9400961057941E+00
(PID.TID 0000.0001) %MON dynstat_eta_del2             =   1.9059799590148E-01
(PID.TID 0000.0001) %MON dynstat_uvel_max             =   1.5922753575164E-02
(PID.TID 0000.0001) %MON dynstat_uvel_min             =  -7.1757992868363E-02
(PID.TID 0000.0001) %MON dynstat_uvel_mean            =   7.2116387139359E-09
(PID.TID 0000.0001) %MON dynstat_uvel_sd              =   2.0977186179562E-03
(PID.TID 0000.0001) %MON dynstat_uvel_del2            =   3.3151263992844E-06
(PID.TID 0000.0001) %MON dynstat_vvel_max             =   3.8479006743140E-02
(PID.TID 0000.0001) %MON dynstat_vvel_min             =  -2.2239287764133E-02
(PID.TID 0000.0001) %MON dynstat_vvel_mean            =   1.6531187142378E-07
(PID.TID 0000.0001) %MON dynstat_vvel_sd              =   8.9542820085458E-04
(PID.TID 0000.0001) %MON dynstat_vvel_del2            =   2.2828753477241E-06
(PID.TID 0000.0001) %MON dynstat_wvel_max             =   2.5956596691042E-03
(PID.TID 0000.0001) %MON dynstat_wvel_min             =  -3.1301637743378E-03
(PID.TID 0000.0001) %MON dynstat_wvel_mean            =   5.7791856002018E-10
(PID.TID 0000.0001) %MON dynstat_wvel_sd              =   4.4106553029736E-05
(PID.TID 0000.0001) %MON dynstat_wvel_del2            =   1.6162017187422E-07
(PID.TID 0000.0001) %MON dynstat_theta_max            =   1.2000000000000E+00
(PID.TID 0000.0001) %MON dynstat_theta_min            =  -1.0000000000000E+00
(PID.TID 0000.0001) %MON dynstat_theta_mean           =   5.6472223721195E-01
(PID.TID 0000.0001) %MON dynstat_theta_sd             =   8.4875746088888E-01
(PID.TID 0000.0001) %MON dynstat_theta_del2           =   6.2850870470536E-06
(PID.TID 0000.0001) %MON dynstat_salt_max             =   3.4700000000000E+01
(PID.TID 0000.0001) %MON dynstat_salt_min             =   3.4000000000000E+01
(PID.TID 0000.0001) %MON dynstat_salt_mean            =   3.4497803006858E+01
(PID.TID 0000.0001) %MON dynstat_salt_sd              =   2.7004421499684E-01
(PID.TID 0000.0001) %MON dynstat_salt_del2            =   2.4915863599743E-06
(PID.TID 0000.0001) %MON advcfl_uvel_max              =   7.1757992868363E-03
(PID.TID 0000.0001) %MON advcfl_vvel_max              =   3.8479006743140E-03
(PID.TID 0000.0001) %MON advcfl_wvel_max              =   1.5650818871689E-02
(PID.TID 0000.0001) %MON advcfl_W_hf_max              =   1.5650818871689E-02
(PID.TID 0000.0001) %MON pe_b_mean                    =  -6.8093924084906E-01
(PID.TID 0000.0001) %MON ke_max                       =   2.4298872841448E-03
(PID.TID 0000.0001) %MON ke_mean                      =   2.5597355551688E-06
(PID.TID 0000.0001) %MON ke_vol                       =   4.6183272007895E+12
(PID.TID 0000.0001) // =======================================================
(PID.TID 0000.0001) // End MONITOR dynamic field statistics
(PID.TID 0000.0001) // =======================================================
(PID.TID 0000.0001) // =======================================================
(PID.TID 0000.0001) // Begin OBCS MONITOR field statistics
(PID.TID 0000.0001) // =======================================================
(PID.TID 0000.0001) %MON obc_N_vVel_max               =   1.0262284249293E-07
(PID.TID 0000.0001) %MON obc_N_vVel_min               =   1.0262284249293E-07
(PID.TID 0000.0001) %MON obc_N_vVel_mean              =   1.0262284249293E-07
(PID.TID 0000.0001) %MON obc_N_vVel_sd                =  -3.9127500898962E-28
(PID.TID 0000.0001) %MON obc_N_vVel_Int               =   6.7731076045336E+00
(PID.TID 0000.0001) // =======================================================
(PID.TID 0000.0001) // End OBCS MONITOR field statistics
(PID.TID 0000.0001) // =======================================================
 cg2d: Sum(rhs),rhsMax =   3.00450397825872E+00  4.53036527162494E+02
(PID.TID 0000.0001)      cg2d_init_res =   6.85946212400909E-06
(PID.TID 0000.0001)      cg2d_iters(min,last) =      -1      79
(PID.TID 0000.0001)      cg2d_last_res =   9.93943281312684E-12
(PID.TID 0000.0001) // =======================================================
(PID.TID 0000.0001) // Begin MONITOR dynamic field statistics
(PID.TID 0000.0001) // =======================================================
(PID.TID 0000.0001) %MON time_tsnumber                =                  1562
(PID.TID 0000.0001) %MON time_secondsf                =   1.5620000000000E+05
(PID.TID 0000.0001) %MON dynstat_eta_max              =   5.7998895724192E+00
(PID.TID 0000.0001) %MON dynstat_eta_min              =  -1.4163788588161E+01
(PID.TID 0000.0001) %MON dynstat_eta_mean             =  -2.5206482373264E+00
(PID.TID 0000.0001) %MON dynstat_eta_sd               =   4.9400924906043E+00
(PID.TID 0000.0001) %MON dynstat_eta_del2             =   1.9059803336135E-01
(PID.TID 0000.0001) %MON dynstat_uvel_max             =   1.5953915593803E-02
(PID.TID 0000.0001) %MON dynstat_uvel_min             =  -7.1892867265582E-02
(PID.TID 0000.0001) %MON dynstat_uvel_mean            =   7.2328952443128E-09
(PID.TID 0000.0001) %MON dynstat_uvel_sd              =   2.1019865184015E-03
(PID.TID 0000.0001) %MON dynstat_uvel_del2            =   3.3224369658894E-06
(PID.TID 0000.0001) %MON dynstat_vvel_max             =   3.8521824131765E-02
(PID.TID 0000.0001) %MON dynstat_vvel_min             =  -2.2286205727809E-02
(PID.TID 0000.0001) %MON dynstat_vvel_mean            =   1.6803159861656E-07
(PID.TID 0000.0001) %MON dynstat_vvel_sd              =   8.9706109519663E-04
(PID.TID 0000.0001) %MON dynstat_vvel_del2            =   2.2865596323054E-06
(PID.TID 0000.0001) %MON dynstat_wvel_max             =   2.5992403850483E-03
(PID.TID 0000.0001) %MON dynstat_wvel_min             =  -3.1318364617029E-03
(PID.TID 0000.0001) %MON dynstat_wvel_mean            =   5.7793465211162E-10
(PID.TID 0000.0001) %MON dynstat_wvel_sd              =   4.4170566817693E-05
(PID.TID 0000.0001) %MON dynstat_wvel_del2            =   1.6180147410900E-07
(PID.TID 0000.0001) %MON dynstat_theta_max            =   1.2000000000000E+00
(PID.TID 0000.0001) %MON dynstat_theta_min            =  -1.0000000000000E+00
(PID.TID 0000.0001) %MON dynstat_theta_mean           =   5.6472083665855E-01
(PID.TID 0000.0001) %MON dynstat_theta_sd             =   8.4875685535728E-01
(PID.TID 0000.0001) %MON dynstat_theta_del2           =   6.2950649307587E-06
(PID.TID 0000.0001) %MON dynstat_salt_max             =   3.4700000000000E+01
(PID.TID 0000.0001) %MON dynstat_salt_min             =   3.4000000000000E+01
(PID.TID 0000.0001) %MON dynstat_salt_mean            =   3.4497802446714E+01
(PID.TID 0000.0001) %MON dynstat_salt_sd              =   2.7004398958512E-01
(PID.TID 0000.0001) %MON dynstat_salt_del2            =   2.4955548325500E-06
(PID.TID 0000.0001) %MON advcfl_uvel_max              =   7.1892867265582E-03
(PID.TID 0000.0001) %MON advcfl_vvel_max              =   3.8521824131765E-03
(PID.TID 0000.0001) %MON advcfl_wvel_max              =   1.5659182308515E-02
(PID.TID 0000.0001) %MON advcfl_W_hf_max              =   1.5659182308515E-02
(PID.TID 0000.0001) %MON pe_b_mean                    =  -6.8093546161200E-01
(PID.TID 0000.0001) %MON ke_max                       =   2.4395770696192E-03
(PID.TID 0000.0001) %MON ke_mean                      =   2.5699924789562E-06
(PID.TID 0000.0001) %MON ke_vol                       =   4.6183272750775E+12
(PID.TID 0000.0001) // =======================================================
(PID.TID 0000.0001) // End MONITOR dynamic field statistics
(PID.TID 0000.0001) // =======================================================
(PID.TID 0000.0001) // =======================================================
(PID.TID 0000.0001) // Begin OBCS MONITOR field statistics
(PID.TID 0000.0001) // =======================================================
(PID.TID 0000.0001) %MON obc_N_vVel_max               =   1.0516217855652E-07
(PID.TID 0000.0001) %MON obc_N_vVel_min               =   1.0516217855651E-07
(PID.TID 0000.0001) %MON obc_N_vVel_mean              =   1.0516217855652E-07
(PID.TID 0000.0001) %MON obc_N_vVel_sd                =  -2.9345625674222E-28
(PID.TID 0000.0001) %MON obc_N_vVel_Int               =   6.9407037847300E+00
(PID.TID 0000.0001) // =======================================================
(PID.TID 0000.0001) // End OBCS MONITOR field statistics
(PID.TID 0000.0001) // =======================================================
 cg2d: Sum(rhs),rhsMax =   3.00448918299090E+00  4.53036503938832E+02
(PID.TID 0000.0001)      cg2d_init_res =   6.86927248734846E-06
(PID.TID 0000.0001)      cg2d_iters(min,last) =      -1      79
(PID.TID 0000.0001)      cg2d_last_res =   9.95761238285911E-12
(PID.TID 0000.0001) // =======================================================
(PID.TID 0000.0001) // Begin MONITOR dynamic field statistics
(PID.TID 0000.0001) // =======================================================
(PID.TID 0000.0001) %MON time_tsnumber                =                  1563
(PID.TID 0000.0001) %MON time_secondsf                =   1.5630000000000E+05
(PID.TID 0000.0001) %MON dynstat_eta_max              =   5.7998931045495E+00
(PID.TID 0000.0001) %MON dynstat_eta_min              =  -1.4163785065091E+01
(PID.TID 0000.0001) %MON dynstat_eta_mean             =  -2.5206356955264E+00
(PID.TID 0000.0001) %MON dynstat_eta_sd               =   4.9400888700515E+00
(PID.TID 0000.0001) %MON dynstat_eta_del2             =   1.9059807087332E-01
(PID.TID 0000.0001) %MON dynstat_uvel_max             =   1.5985102992357E-02
(PID.TID 0000.0001) %MON dynstat_uvel_min             =  -7.2027829789736E-02
(PID.TID 0000.0001) %MON dynstat_uvel_mean            =   7.2565139733855E-09
(PID.TID 0000.0001) %MON dynstat_uvel_sd              =   2.1062600283442E-03
(PID.TID 0000.0001) %MON dynstat_uvel_del2            =   3.3297605182929E-06
(PID.TID 0000.0001) %MON dynstat_vvel_max             =   3.8564633164023E-02
(PID.TID 0000.0001) %MON dynstat_vvel_min             =  -2.2333097305525E-02
(PID.TID 0000.0001) %MON dynstat_vvel_mean            =   1.7062488163443E-07
(PID.TID 0000.0001) %MON dynstat_vvel_sd              =   8.9869635011922E-04
(PID.TID 0000.0001) %MON dynstat_vvel_del2            =   2.2902479631743E-06
(PID.TID 0000.0001) %MON dynstat_wvel_max             =   2.6028199115652E-03
(PID.TID 0000.0001) %MON dynstat_wvel_min             =  -3.1334822923049E-03
(PID.TID 0000.0001) %MON dynstat_wvel_mean            =   5.7759699353129E-10
(PID.TID 0000.0001) %MON dynstat_wvel_sd              =   4.4234815203495E-05
(PID.TID 0000.0001) %MON dynstat_wvel_del2            =   1.6198306907948E-07
(PID.TID 0000.0001) %MON dynstat_theta_max            =   1.2000000000000E+00
(PID.TID 0000.0001) %MON dynstat_theta_min            =  -1.0000000000000E+00
(PID.TID 0000.0001) %MON dynstat_theta_mean           =   5.6471943383996E-01
(PID.TID 0000.0001) %MON dynstat_theta_sd             =   8.4875624905171E-01
(PID.TID 0000.0001) %MON dynstat_theta_del2           =   6.3050517288689E-06
(PID.TID 0000.0001) %MON dynstat_salt_max             =   3.4700000000000E+01
(PID.TID 0000.0001) %MON dynstat_salt_min             =   3.4000000000000E+01
(PID.TID 0000.0001) %MON dynstat_salt_mean            =   3.4497801885662E+01
(PID.TID 0000.0001) %MON dynstat_salt_sd              =   2.7004376390749E-01
(PID.TID 0000.0001) %MON dynstat_salt_del2            =   2.4995269015728E-06
(PID.TID 0000.0001) %MON advcfl_uvel_max              =   7.2027829789736E-03
(PID.TID 0000.0001) %MON advcfl_vvel_max              =   3.8564633164023E-03
(PID.TID 0000.0001) %MON advcfl_wvel_max              =   1.5667411461525E-02
(PID.TID 0000.0001) %MON advcfl_W_hf_max              =   1.5667411461525E-02
(PID.TID 0000.0001) %MON pe_b_mean                    =  -6.8093167671924E-01
(PID.TID 0000.0001) %MON ke_max                       =   2.4492911699711E-03
(PID.TID 0000.0001) %MON ke_mean                      =   2.5802836558901E-06
(PID.TID 0000.0001) %MON ke_vol                       =   4.6183273494703E+12
(PID.TID 0000.0001) // =======================================================
(PID.TID 0000.0001) // End MONITOR dynamic field statistics
(PID.TID 0000.0001) // =======================================================
(PID.TID 0000.0001) // =======================================================
(PID.TID 0000.0001) // Begin OBCS MONITOR field statistics
(PID.TID 0000.0001) // =======================================================
(PID.TID 0000.0001) %MON obc_N_vVel_max               =   1.0761517832556E-07
(PID.TID 0000.0001) %MON obc_N_vVel_min               =   1.0761517832556E-07
(PID.TID 0000.0001) %MON obc_N_vVel_mean              =   1.0761517832556E-07
(PID.TID 0000.0001) %MON obc_N_vVel_sd                =   2.7231034701380E-14
(PID.TID 0000.0001) %MON obc_N_vVel_Int               =   7.1026017694870E+00
(PID.TID 0000.0001) // =======================================================
(PID.TID 0000.0001) // End OBCS MONITOR field statistics
(PID.TID 0000.0001) // =======================================================
 cg2d: Sum(rhs),rhsMax =   3.00447436660862E+00  4.53036480676418E+02
(PID.TID 0000.0001)      cg2d_init_res =   6.87910469572703E-06
(PID.TID 0000.0001)      cg2d_iters(min,last) =      -1      79
(PID.TID 0000.0001)      cg2d_last_res =   9.97579498408651E-12
(PID.TID 0000.0001) // =======================================================
(PID.TID 0000.0001) // Begin MONITOR dynamic field statistics
(PID.TID 0000.0001) // =======================================================
(PID.TID 0000.0001) %MON time_tsnumber                =                  1564
(PID.TID 0000.0001) %MON time_secondsf                =   1.5640000000000E+05
(PID.TID 0000.0001) %MON dynstat_eta_max              =   5.7998966403950E+00
(PID.TID 0000.0001) %MON dynstat_eta_min              =  -1.4163781542995E+01
(PID.TID 0000.0001) %MON dynstat_eta_mean             =  -2.5206231357979E+00
(PID.TID 0000.0001) %MON dynstat_eta_sd               =   4.9400852440389E+00
(PID.TID 0000.0001) %MON dynstat_eta_del2             =   1.9059810843717E-01
(PID.TID 0000.0001) %MON dynstat_uvel_max             =   1.6016315601571E-02
(PID.TID 0000.0001) %MON dynstat_uvel_min             =  -7.2162880498833E-02
(PID.TID 0000.0001) %MON dynstat_uvel_mean            =   7.2823398402435E-09
(PID.TID 0000.0001) %MON dynstat_uvel_sd              =   2.1105391437631E-03
(PID.TID 0000.0001) %MON dynstat_uvel_del2            =   3.3370970666804E-06
(PID.TID 0000.0001) %MON dynstat_vvel_max             =   3.8607433778470E-02
(PID.TID 0000.0001) %MON dynstat_vvel_min             =  -2.2379961199954E-02
(PID.TID 0000.0001) %MON dynstat_vvel_mean            =   1.7304349172553E-07
(PID.TID 0000.0001) %MON dynstat_vvel_sd              =   9.0033397878574E-04
(PID.TID 0000.0001) %MON dynstat_vvel_del2            =   2.2939403949436E-06
(PID.TID 0000.0001) %MON dynstat_wvel_max             =   2.6063982219847E-03
(PID.TID 0000.0001) %MON dynstat_wvel_min             =  -3.1351011896359E-03
(PID.TID 0000.0001) %MON dynstat_wvel_mean            =   5.7693652842600E-10
(PID.TID 0000.0001) %MON dynstat_wvel_sd              =   4.4299338329793E-05
(PID.TID 0000.0001) %MON dynstat_wvel_del2            =   1.6216516843501E-07
(PID.TID 0000.0001) %MON dynstat_theta_max            =   1.2000000000000E+00
(PID.TID 0000.0001) %MON dynstat_theta_min            =  -1.0000000000000E+00
(PID.TID 0000.0001) %MON dynstat_theta_mean           =   5.6471802875367E-01
(PID.TID 0000.0001) %MON dynstat_theta_sd             =   8.4875564197144E-01
(PID.TID 0000.0001) %MON dynstat_theta_del2           =   6.3150473018055E-06
(PID.TID 0000.0001) %MON dynstat_salt_max             =   3.4700000000000E+01
(PID.TID 0000.0001) %MON dynstat_salt_min             =   3.4000000000000E+01
(PID.TID 0000.0001) %MON dynstat_salt_mean            =   3.4497801323702E+01
(PID.TID 0000.0001) %MON dynstat_salt_sd              =   2.7004353796388E-01
(PID.TID 0000.0001) %MON dynstat_salt_del2            =   2.5035025344465E-06
(PID.TID 0000.0001) %MON advcfl_uvel_max              =   7.2162880498833E-03
(PID.TID 0000.0001) %MON advcfl_vvel_max              =   3.8607433778470E-03
(PID.TID 0000.0001) %MON advcfl_wvel_max              =   1.5675505948180E-02
(PID.TID 0000.0001) %MON advcfl_W_hf_max              =   1.5675505948180E-02
(PID.TID 0000.0001) %MON pe_b_mean                    =  -6.8092788612565E-01
(PID.TID 0000.0001) %MON ke_max                       =   2.4590295329514E-03
(PID.TID 0000.0001) %MON ke_mean                      =   2.5906091716299E-06
(PID.TID 0000.0001) %MON ke_vol                       =   4.6183274239686E+12
(PID.TID 0000.0001) // =======================================================
(PID.TID 0000.0001) // End MONITOR dynamic field statistics
(PID.TID 0000.0001) // =======================================================
(PID.TID 0000.0001) // =======================================================
(PID.TID 0000.0001) // Begin OBCS MONITOR field statistics
(PID.TID 0000.0001) // =======================================================
(PID.TID 0000.0001) %MON obc_N_vVel_max               =   1.0993410324003E-07
(PID.TID 0000.0001) %MON obc_N_vVel_min               =   1.0993410324003E-07
(PID.TID 0000.0001) %MON obc_N_vVel_mean              =   1.0993410324003E-07
(PID.TID 0000.0001) %MON obc_N_vVel_sd                =  -5.0487097934145E-29
(PID.TID 0000.0001) %MON obc_N_vVel_Int               =   7.2556508138418E+00
(PID.TID 0000.0001) // =======================================================
(PID.TID 0000.0001) // End OBCS MONITOR field statistics
(PID.TID 0000.0001) // =======================================================
 cg2d: Sum(rhs),rhsMax =   3.00445952890277E+00  4.53036457368169E+02
(PID.TID 0000.0001)      cg2d_init_res =   6.88896210340104E-06
(PID.TID 0000.0001)      cg2d_iters(min,last) =      -1      79
(PID.TID 0000.0001)      cg2d_last_res =   9.99399416182355E-12
(PID.TID 0000.0001) // =======================================================
(PID.TID 0000.0001) // Begin MONITOR dynamic field statistics
(PID.TID 0000.0001) // =======================================================
(PID.TID 0000.0001) %MON time_tsnumber                =                  1565
(PID.TID 0000.0001) %MON time_secondsf                =   1.5650000000000E+05
(PID.TID 0000.0001) %MON dynstat_eta_max              =   5.7999001804943E+00
(PID.TID 0000.0001) %MON dynstat_eta_min              =  -1.4163778021482E+01
(PID.TID 0000.0001) %MON dynstat_eta_mean             =  -2.5206105579262E+00
(PID.TID 0000.0001) %MON dynstat_eta_sd               =   4.9400816124584E+00
(PID.TID 0000.0001) %MON dynstat_eta_del2             =   1.9059814605264E-01
(PID.TID 0000.0001) %MON dynstat_uvel_max             =   1.6047553250601E-02
(PID.TID 0000.0001) %MON dynstat_uvel_min             =  -7.2298019449008E-02
(PID.TID 0000.0001) %MON dynstat_uvel_mean            =   7.3101873521287E-09
(PID.TID 0000.0001) %MON dynstat_uvel_sd              =   2.1148238605881E-03
(PID.TID 0000.0001) %MON dynstat_uvel_del2            =   3.3444466211012E-06
(PID.TID 0000.0001) %MON dynstat_vvel_max             =   3.8650225913905E-02
(PID.TID 0000.0001) %MON dynstat_vvel_min             =  -2.2426796103844E-02
(PID.TID 0000.0001) %MON dynstat_vvel_mean            =   1.7524373925375E-07
(PID.TID 0000.0001) %MON dynstat_vvel_sd              =   9.0197399035622E-04
(PID.TID 0000.0001) %MON dynstat_vvel_del2            =   2.2976369759141E-06
(PID.TID 0000.0001) %MON dynstat_wvel_max             =   2.6099752893708E-03
(PID.TID 0000.0001) %MON dynstat_wvel_min             =  -3.1366930789836E-03
(PID.TID 0000.0001) %MON dynstat_wvel_mean            =   5.7599018232294E-10
(PID.TID 0000.0001) %MON dynstat_wvel_sd              =   4.4364165952657E-05
(PID.TID 0000.0001) %MON dynstat_wvel_del2            =   1.6234798089180E-07
(PID.TID 0000.0001) %MON dynstat_theta_max            =   1.2000000000000E+00
(PID.TID 0000.0001) %MON dynstat_theta_min            =  -1.0000000000000E+00
(PID.TID 0000.0001) %MON dynstat_theta_mean           =   5.6471662139712E-01
(PID.TID 0000.0001) %MON dynstat_theta_sd             =   8.4875503411694E-01
(PID.TID 0000.0001) %MON dynstat_theta_del2           =   6.3250514670096E-06
(PID.TID 0000.0001) %MON dynstat_salt_max             =   3.4700000000000E+01
(PID.TID 0000.0001) %MON dynstat_salt_min             =   3.4000000000000E+01
(PID.TID 0000.0001) %MON dynstat_salt_mean            =   3.4497800760833E+01
(PID.TID 0000.0001) %MON dynstat_salt_sd              =   2.7004331175459E-01
(PID.TID 0000.0001) %MON dynstat_salt_del2            =   2.5074817083174E-06
(PID.TID 0000.0001) %MON advcfl_uvel_max              =   7.2298019449008E-03
(PID.TID 0000.0001) %MON advcfl_vvel_max              =   3.8650225913905E-03
(PID.TID 0000.0001) %MON advcfl_wvel_max              =   1.5683465394918E-02
(PID.TID 0000.0001) %MON advcfl_W_hf_max              =   1.5683465394918E-02
(PID.TID 0000.0001) %MON pe_b_mean                    =  -6.8092408977717E-01
(PID.TID 0000.0001) %MON ke_max                       =   2.4687921052621E-03
(PID.TID 0000.0001) %MON ke_mean                      =   2.6009691082512E-06
(PID.TID 0000.0001) %MON ke_vol                       =   4.6183274985734E+12
(PID.TID 0000.0001) // =======================================================
(PID.TID 0000.0001) // End MONITOR dynamic field statistics
(PID.TID 0000.0001) // =======================================================
(PID.TID 0000.0001) // =======================================================
(PID.TID 0000.0001) // Begin OBCS MONITOR field statistics
(PID.TID 0000.0001) // =======================================================
(PID.TID 0000.0001) %MON obc_N_vVel_max               =   1.1207484439416E-07
(PID.TID 0000.0001) %MON obc_N_vVel_min               =   1.1207484439416E-07
(PID.TID 0000.0001) %MON obc_N_vVel_mean              =   1.1207484439416E-07
(PID.TID 0000.0001) %MON obc_N_vVel_sd                =   2.3465398182095E-14
(PID.TID 0000.0001) %MON obc_N_vVel_Int               =   7.3969397300143E+00
(PID.TID 0000.0001) // =======================================================
(PID.TID 0000.0001) // End OBCS MONITOR field statistics
(PID.TID 0000.0001) // =======================================================
 cg2d: Sum(rhs),rhsMax =   3.00444466960973E+00  4.53036434007380E+02
(PID.TID 0000.0001)      cg2d_init_res =   6.89884705237610E-06
(PID.TID 0000.0001)      cg2d_iters(min,last) =      -1      80
(PID.TID 0000.0001)      cg2d_last_res =   7.89688457079397E-12
(PID.TID 0000.0001) // =======================================================
(PID.TID 0000.0001) // Begin MONITOR dynamic field statistics
(PID.TID 0000.0001) // =======================================================
(PID.TID 0000.0001) %MON time_tsnumber                =                  1566
(PID.TID 0000.0001) %MON time_secondsf                =   1.5660000000000E+05
(PID.TID 0000.0001) %MON dynstat_eta_max              =   5.7999037260555E+00
(PID.TID 0000.0001) %MON dynstat_eta_min              =  -1.4163774499942E+01
(PID.TID 0000.0001) %MON dynstat_eta_mean             =  -2.5205979616527E+00
(PID.TID 0000.0001) %MON dynstat_eta_sd               =   4.9400779751881E+00
(PID.TID 0000.0001) %MON dynstat_eta_del2             =   1.9059818371956E-01
(PID.TID 0000.0001) %MON dynstat_uvel_max             =   1.6078815772007E-02
(PID.TID 0000.0001) %MON dynstat_uvel_min             =  -7.2433246694786E-02
(PID.TID 0000.0001) %MON dynstat_uvel_mean            =   7.3397737514417E-09
(PID.TID 0000.0001) %MON dynstat_uvel_sd              =   2.1191141746969E-03
(PID.TID 0000.0001) %MON dynstat_uvel_del2            =   3.3518091915007E-06
(PID.TID 0000.0001) %MON dynstat_vvel_max             =   3.8693009508318E-02
(PID.TID 0000.0001) %MON dynstat_vvel_min             =  -2.2473600706592E-02
(PID.TID 0000.0001) %MON dynstat_vvel_mean            =   1.7718734335754E-07
(PID.TID 0000.0001) %MON dynstat_vvel_sd              =   9.0361638957509E-04
(PID.TID 0000.0001) %MON dynstat_vvel_del2            =   2.3013377450158E-06
(PID.TID 0000.0001) %MON dynstat_wvel_max             =   2.6135510883131E-03
(PID.TID 0000.0001) %MON dynstat_wvel_min             =  -3.1382578837273E-03
(PID.TID 0000.0001) %MON dynstat_wvel_mean            =   5.7480217891613E-10
(PID.TID 0000.0001) %MON dynstat_wvel_sd              =   4.4429315582375E-05
(PID.TID 0000.0001) %MON dynstat_wvel_del2            =   1.6253169826273E-07
(PID.TID 0000.0001) %MON dynstat_theta_max            =   1.2000000000000E+00
(PID.TID 0000.0001) %MON dynstat_theta_min            =  -1.0000000000000E+00
(PID.TID 0000.0001) %MON dynstat_theta_mean           =   5.6471521176773E-01
(PID.TID 0000.0001) %MON dynstat_theta_sd             =   8.4875442548670E-01
(PID.TID 0000.0001) %MON dynstat_theta_del2           =   6.3350641461367E-06
(PID.TID 0000.0001) %MON dynstat_salt_max             =   3.4700000000000E+01
(PID.TID 0000.0001) %MON dynstat_salt_min             =   3.4000000000000E+01
(PID.TID 0000.0001) %MON dynstat_salt_mean            =   3.4497800197054E+01
(PID.TID 0000.0001) %MON dynstat_salt_sd              =   2.7004308527925E-01
(PID.TID 0000.0001) %MON dynstat_salt_del2            =   2.5114644079187E-06
(PID.TID 0000.0001) %MON advcfl_uvel_max              =   7.2433246694786E-03
(PID.TID 0000.0001) %MON advcfl_vvel_max              =   3.8693009508318E-03
(PID.TID 0000.0001) %MON advcfl_wvel_max              =   1.5691289418637E-02
(PID.TID 0000.0001) %MON advcfl_W_hf_max              =   1.5691289418637E-02
(PID.TID 0000.0001) %MON pe_b_mean                    =  -6.8092028761198E-01
(PID.TID 0000.0001) %MON ke_max                       =   2.4785788326120E-03
(PID.TID 0000.0001) %MON ke_mean                      =   2.6113635438330E-06
(PID.TID 0000.0001) %MON ke_vol                       =   4.6183275732859E+12
(PID.TID 0000.0001) // =======================================================
(PID.TID 0000.0001) // End MONITOR dynamic field statistics
(PID.TID 0000.0001) // =======================================================
(PID.TID 0000.0001) // =======================================================
(PID.TID 0000.0001) // Begin OBCS MONITOR field statistics
(PID.TID 0000.0001) // =======================================================
(PID.TID 0000.0001) %MON obc_N_vVel_max               =   1.1399782797516E-07
(PID.TID 0000.0001) %MON obc_N_vVel_min               =   1.1399782797516E-07
(PID.TID 0000.0001) %MON obc_N_vVel_mean              =   1.1399782797516E-07
(PID.TID 0000.0001) %MON obc_N_vVel_sd                =  -3.3132158019282E-29
(PID.TID 0000.0001) %MON obc_N_vVel_Int               =   7.5238566463609E+00
(PID.TID 0000.0001) // =======================================================
(PID.TID 0000.0001) // End OBCS MONITOR field statistics
(PID.TID 0000.0001) // =======================================================
 cg2d: Sum(rhs),rhsMax =   3.00442978842377E+00  4.53036410586840E+02
(PID.TID 0000.0001)      cg2d_init_res =   6.90878311835997E-06
(PID.TID 0000.0001)      cg2d_iters(min,last) =      -1      80
(PID.TID 0000.0001)      cg2d_last_res =   7.91077490610225E-12
(PID.TID 0000.0001) // =======================================================
(PID.TID 0000.0001) // Begin MONITOR dynamic field statistics
(PID.TID 0000.0001) // =======================================================
(PID.TID 0000.0001) %MON time_tsnumber                =                  1567
(PID.TID 0000.0001) %MON time_secondsf                =   1.5670000000000E+05
(PID.TID 0000.0001) %MON dynstat_eta_max              =   5.7999072764648E+00
(PID.TID 0000.0001) %MON dynstat_eta_min              =  -1.4163770978183E+01
(PID.TID 0000.0001) %MON dynstat_eta_mean             =  -2.5205853466809E+00
(PID.TID 0000.0001) %MON dynstat_eta_sd               =   4.9400743321131E+00
(PID.TID 0000.0001) %MON dynstat_eta_del2             =   1.9059822143768E-01
(PID.TID 0000.0001) %MON dynstat_uvel_max             =   1.6110102980955E-02
(PID.TID 0000.0001) %MON dynstat_uvel_min             =  -7.2568562287746E-02
(PID.TID 0000.0001) %MON dynstat_uvel_mean            =   7.3709704160535E-09
(PID.TID 0000.0001) %MON dynstat_uvel_sd              =   2.1234100819044E-03
(PID.TID 0000.0001) %MON dynstat_uvel_del2            =   3.3591847878618E-06
(PID.TID 0000.0001) %MON dynstat_vvel_max             =   3.8735784507867E-02
(PID.TID 0000.0001) %MON dynstat_vvel_min             =  -2.2520373655732E-02
(PID.TID 0000.0001) %MON dynstat_vvel_mean            =   1.7884238923808E-07
(PID.TID 0000.0001) %MON dynstat_vvel_sd              =   9.0526117657102E-04
(PID.TID 0000.0001) %MON dynstat_vvel_del2            =   2.3050427292730E-06
(PID.TID 0000.0001) %MON dynstat_wvel_max             =   2.6171255879164E-03
(PID.TID 0000.0001) %MON dynstat_wvel_min             =  -3.1397955542892E-03
(PID.TID 0000.0001) %MON dynstat_wvel_mean            =   5.7341848718067E-10
(PID.TID 0000.0001) %MON dynstat_wvel_sd              =   4.4494791102918E-05
(PID.TID 0000.0001) %MON dynstat_wvel_del2            =   1.6271648225871E-07
(PID.TID 0000.0001) %MON dynstat_theta_max            =   1.2000000000000E+00
(PID.TID 0000.0001) %MON dynstat_theta_min            =  -1.0000000000000E+00
(PID.TID 0000.0001) %MON dynstat_theta_mean           =   5.6471379986285E-01
(PID.TID 0000.0001) %MON dynstat_theta_sd             =   8.4875381608129E-01
(PID.TID 0000.0001) %MON dynstat_theta_del2           =   6.3450852859761E-06
(PID.TID 0000.0001) %MON dynstat_salt_max             =   3.4700000000000E+01
(PID.TID 0000.0001) %MON dynstat_salt_min             =   3.4000000000000E+01
(PID.TID 0000.0001) %MON dynstat_salt_mean            =   3.4497799632364E+01
(PID.TID 0000.0001) %MON dynstat_salt_sd              =   2.7004285853806E-01
(PID.TID 0000.0001) %MON dynstat_salt_del2            =   2.5154506255502E-06
(PID.TID 0000.0001) %MON advcfl_uvel_max              =   7.2568562287746E-03
(PID.TID 0000.0001) %MON advcfl_vvel_max              =   3.8735784507867E-03
(PID.TID 0000.0001) %MON advcfl_wvel_max              =   1.5698977771446E-02
(PID.TID 0000.0001) %MON advcfl_W_hf_max              =   1.5698977771446E-02
(PID.TID 0000.0001) %MON pe_b_mean                    =  -6.8091647956182E-01
(PID.TID 0000.0001) %MON ke_max                       =   2.4883896599025E-03
(PID.TID 0000.0001) %MON ke_mean                      =   2.6217925522172E-06
(PID.TID 0000.0001) %MON ke_vol                       =   4.6183276481078E+12
(PID.TID 0000.0001) // =======================================================
(PID.TID 0000.0001) // End MONITOR dynamic field statistics
(PID.TID 0000.0001) // =======================================================
(PID.TID 0000.0001) // =======================================================
(PID.TID 0000.0001) // Begin OBCS MONITOR field statistics
(PID.TID 0000.0001) // =======================================================
(PID.TID 0000.0001) %MON obc_N_vVel_max               =   1.1566883775326E-07
(PID.TID 0000.0001) %MON obc_N_vVel_min               =   1.1566883775325E-07
(PID.TID 0000.0001) %MON obc_N_vVel_mean              =   1.1566883775325E-07
(PID.TID 0000.0001) %MON obc_N_vVel_sd                =   2.9750662776785E-14
(PID.TID 0000.0001) %MON obc_N_vVel_Int               =   7.6341432917147E+00
(PID.TID 0000.0001) // =======================================================
(PID.TID 0000.0001) // End OBCS MONITOR field statistics
(PID.TID 0000.0001) // =======================================================
 cg2d: Sum(rhs),rhsMax =   3.00441488497798E+00  4.53036387102963E+02
(PID.TID 0000.0001)      cg2d_init_res =   6.91872131355677E-06
(PID.TID 0000.0001)      cg2d_iters(min,last) =      -1      80
(PID.TID 0000.0001)      cg2d_last_res =   7.92459182171704E-12
(PID.TID 0000.0001) // =======================================================
(PID.TID 0000.0001) // Begin MONITOR dynamic field statistics
(PID.TID 0000.0001) // =======================================================
(PID.TID 0000.0001) %MON time_tsnumber                =                  1568
(PID.TID 0000.0001) %MON time_secondsf                =   1.5680000000000E+05
(PID.TID 0000.0001) %MON dynstat_eta_max              =   5.7999108330444E+00
(PID.TID 0000.0001) %MON dynstat_eta_min              =  -1.4163767455503E+01
(PID.TID 0000.0001) %MON dynstat_eta_mean             =  -2.5205727126829E+00
(PID.TID 0000.0001) %MON dynstat_eta_sd               =   4.9400706830995E+00
(PID.TID 0000.0001) %MON dynstat_eta_del2             =   1.9059825920683E-01
(PID.TID 0000.0001) %MON dynstat_uvel_max             =   1.6141414717680E-02
(PID.TID 0000.0001) %MON dynstat_uvel_min             =  -7.2703966280727E-02
(PID.TID 0000.0001) %MON dynstat_uvel_mean            =   7.4035544803414E-09
(PID.TID 0000.0001) %MON dynstat_uvel_sd              =   2.1277115779765E-03
(PID.TID 0000.0001) %MON dynstat_uvel_del2            =   3.3665734200343E-06
(PID.TID 0000.0001) %MON dynstat_vvel_max             =   3.8778550846414E-02
(PID.TID 0000.0001) %MON dynstat_vvel_min             =  -2.2567113635317E-02
(PID.TID 0000.0001) %MON dynstat_vvel_mean            =   1.8018406261763E-07
(PID.TID 0000.0001) %MON dynstat_vvel_sd              =   9.0690834680236E-04
(PID.TID 0000.0001) %MON dynstat_vvel_del2            =   2.3087519413348E-06
(PID.TID 0000.0001) %MON dynstat_wvel_max             =   2.6206987655794E-03
(PID.TID 0000.0001) %MON dynstat_wvel_min             =  -3.1413060187615E-03
(PID.TID 0000.0001) %MON dynstat_wvel_mean            =   5.7188841110226E-10
(PID.TID 0000.0001) %MON dynstat_wvel_sd              =   4.4560581830298E-05
(PID.TID 0000.0001) %MON dynstat_wvel_del2            =   1.6290245034149E-07
(PID.TID 0000.0001) %MON dynstat_theta_max            =   1.2000000000000E+00
(PID.TID 0000.0001) %MON dynstat_theta_min            =  -1.0000000000000E+00
(PID.TID 0000.0001) %MON dynstat_theta_mean           =   5.6471238567973E-01
(PID.TID 0000.0001) %MON dynstat_theta_sd             =   8.4875320589968E-01
(PID.TID 0000.0001) %MON dynstat_theta_del2           =   6.3551148668025E-06
(PID.TID 0000.0001) %MON dynstat_salt_max             =   3.4700000000000E+01
(PID.TID 0000.0001) %MON dynstat_salt_min             =   3.4000000000000E+01
(PID.TID 0000.0001) %MON dynstat_salt_mean            =   3.4497799066762E+01
(PID.TID 0000.0001) %MON dynstat_salt_sd              =   2.7004263153118E-01
(PID.TID 0000.0001) %MON dynstat_salt_del2            =   2.5194403579081E-06
(PID.TID 0000.0001) %MON advcfl_uvel_max              =   7.2703966280727E-03
(PID.TID 0000.0001) %MON advcfl_vvel_max              =   3.8778550846414E-03
(PID.TID 0000.0001) %MON advcfl_wvel_max              =   1.5706530093808E-02
(PID.TID 0000.0001) %MON advcfl_W_hf_max              =   1.5706530093808E-02
(PID.TID 0000.0001) %MON pe_b_mean                    =  -6.8091266555337E-01
(PID.TID 0000.0001) %MON ke_max                       =   2.4982245309657E-03
(PID.TID 0000.0001) %MON ke_mean                      =   2.6322562029486E-06
(PID.TID 0000.0001) %MON ke_vol                       =   4.6183277230407E+12
(PID.TID 0000.0001) // =======================================================
(PID.TID 0000.0001) // End MONITOR dynamic field statistics
(PID.TID 0000.0001) // =======================================================
(PID.TID 0000.0001) // =======================================================
(PID.TID 0000.0001) // Begin OBCS MONITOR field statistics
(PID.TID 0000.0001) // =======================================================
(PID.TID 0000.0001) %MON obc_N_vVel_max               =   1.1705995014049E-07
(PID.TID 0000.0001) %MON obc_N_vVel_min               =   1.1705995014049E-07
(PID.TID 0000.0001) %MON obc_N_vVel_mean              =   1.1705995014049E-07
(PID.TID 0000.0001) %MON obc_N_vVel_sd                =   3.0067168097167E-14
(PID.TID 0000.0001) %MON obc_N_vVel_Int               =   7.7259567092724E+00
(PID.TID 0000.0001) // =======================================================
(PID.TID 0000.0001) // End OBCS MONITOR field statistics
(PID.TID 0000.0001) // =======================================================
 cg2d: Sum(rhs),rhsMax =   3.00439995888987E+00  4.53036363550134E+02
(PID.TID 0000.0001)      cg2d_init_res =   6.92868634312406E-06
(PID.TID 0000.0001)      cg2d_iters(min,last) =      -1      80
(PID.TID 0000.0001)      cg2d_last_res =   7.93842147383076E-12
(PID.TID 0000.0001) // =======================================================
(PID.TID 0000.0001) // Begin MONITOR dynamic field statistics
(PID.TID 0000.0001) // =======================================================
(PID.TID 0000.0001) %MON time_tsnumber                =                  1569
(PID.TID 0000.0001) %MON time_secondsf                =   1.5690000000000E+05
(PID.TID 0000.0001) %MON dynstat_eta_max              =   5.7999143964747E+00
(PID.TID 0000.0001) %MON dynstat_eta_min              =  -1.4163763931305E+01
(PID.TID 0000.0001) %MON dynstat_eta_mean             =  -2.5205600593067E+00
(PID.TID 0000.0001) %MON dynstat_eta_sd               =   4.9400670280183E+00
(PID.TID 0000.0001) %MON dynstat_eta_del2             =   1.9059829702683E-01
(PID.TID 0000.0001) %MON dynstat_uvel_max             =   1.6172750803365E-02
(PID.TID 0000.0001) %MON dynstat_uvel_min             =  -7.2839458723017E-02
(PID.TID 0000.0001) %MON dynstat_uvel_mean            =   7.4372111302025E-09
(PID.TID 0000.0001) %MON dynstat_uvel_sd              =   2.1320186585858E-03
(PID.TID 0000.0001) %MON dynstat_uvel_del2            =   3.3739750963780E-06
(PID.TID 0000.0001) %MON dynstat_vvel_max             =   3.8821308466309E-02
(PID.TID 0000.0001) %MON dynstat_vvel_min             =  -2.2613819285397E-02
(PID.TID 0000.0001) %MON dynstat_vvel_mean            =   1.8119456957160E-07
(PID.TID 0000.0001) %MON dynstat_vvel_sd              =   9.0855789126041E-04
(PID.TID 0000.0001) %MON dynstat_vvel_del2            =   2.3124653779707E-06
(PID.TID 0000.0001) %MON dynstat_wvel_max             =   2.6242705934269E-03
(PID.TID 0000.0001) %MON dynstat_wvel_min             =  -3.1427892234747E-03
(PID.TID 0000.0001) %MON dynstat_wvel_mean            =   5.7027668510383E-10
(PID.TID 0000.0001) %MON dynstat_wvel_sd              =   4.4626662347580E-05
(PID.TID 0000.0001) %MON dynstat_wvel_del2            =   1.6308966537465E-07
(PID.TID 0000.0001) %MON dynstat_theta_max            =   1.2000000000000E+00
(PID.TID 0000.0001) %MON dynstat_theta_min            =  -1.0000000000000E+00
(PID.TID 0000.0001) %MON dynstat_theta_mean           =   5.6471096921564E-01
(PID.TID 0000.0001) %MON dynstat_theta_sd             =   8.4875259494154E-01
(PID.TID 0000.0001) %MON dynstat_theta_del2           =   6.3651529012740E-06
(PID.TID 0000.0001) %MON dynstat_salt_max             =   3.4700000000000E+01
(PID.TID 0000.0001) %MON dynstat_salt_min             =   3.4000000000000E+01
(PID.TID 0000.0001) %MON dynstat_salt_mean            =   3.4497798500247E+01
(PID.TID 0000.0001) %MON dynstat_salt_sd              =   2.7004240425833E-01
(PID.TID 0000.0001) %MON dynstat_salt_del2            =   2.5234336163641E-06
(PID.TID 0000.0001) %MON advcfl_uvel_max              =   7.2839458723017E-03
(PID.TID 0000.0001) %MON advcfl_vvel_max              =   3.8821308466309E-03
(PID.TID 0000.0001) %MON advcfl_wvel_max              =   1.5713946117374E-02
(PID.TID 0000.0001) %MON advcfl_W_hf_max              =   1.5713946117374E-02
(PID.TID 0000.0001) %MON pe_b_mean                    =  -6.8090884551018E-01
(PID.TID 0000.0001) %MON ke_max                       =   2.5080833890116E-03
(PID.TID 0000.0001) %MON ke_mean                      =   2.6427545613278E-06
(PID.TID 0000.0001) %MON ke_vol                       =   4.6183277980867E+12
(PID.TID 0000.0001) // =======================================================
(PID.TID 0000.0001) // End MONITOR dynamic field statistics
(PID.TID 0000.0001) // =======================================================
(PID.TID 0000.0001) // =======================================================
(PID.TID 0000.0001) // Begin OBCS MONITOR field statistics
(PID.TID 0000.0001) // =======================================================
(PID.TID 0000.0001) %MON obc_N_vVel_max               =   1.1814895951332E-07
(PID.TID 0000.0001) %MON obc_N_vVel_min               =   1.1814895951332E-07
(PID.TID 0000.0001) %MON obc_N_vVel_mean              =   1.1814895951332E-07
(PID.TID 0000.0001) %MON obc_N_vVel_sd                =   9.1443565084388E-15
(PID.TID 0000.0001) %MON obc_N_vVel_Int               =   7.7978313278791E+00
(PID.TID 0000.0001) // =======================================================
(PID.TID 0000.0001) // End OBCS MONITOR field statistics
(PID.TID 0000.0001) // =======================================================
 cg2d: Sum(rhs),rhsMax =   3.00438500974769E+00  4.53036339924451E+02
(PID.TID 0000.0001)      cg2d_init_res =   6.93867772457588E-06
(PID.TID 0000.0001)      cg2d_iters(min,last) =      -1      80
(PID.TID 0000.0001)      cg2d_last_res =   7.95227231174665E-12
(PID.TID 0000.0001) // =======================================================
(PID.TID 0000.0001) // Begin MONITOR dynamic field statistics
(PID.TID 0000.0001) // =======================================================
(PID.TID 0000.0001) %MON time_tsnumber                =                  1570
(PID.TID 0000.0001) %MON time_secondsf                =   1.5700000000000E+05
(PID.TID 0000.0001) %MON dynstat_eta_max              =   5.7999179674635E+00
(PID.TID 0000.0001) %MON dynstat_eta_min              =  -1.4163760405019E+01
(PID.TID 0000.0001) %MON dynstat_eta_mean             =  -2.5205473861851E+00
(PID.TID 0000.0001) %MON dynstat_eta_sd               =   4.9400633667421E+00
(PID.TID 0000.0001) %MON dynstat_eta_del2             =   1.9059833489753E-01
(PID.TID 0000.0001) %MON dynstat_uvel_max             =   1.6204111065070E-02
(PID.TID 0000.0001) %MON dynstat_uvel_min             =  -7.2975039663273E-02
(PID.TID 0000.0001) %MON dynstat_uvel_mean            =   7.4715797945383E-09
(PID.TID 0000.0001) %MON dynstat_uvel_sd              =   2.1363313193579E-03
(PID.TID 0000.0001) %MON dynstat_uvel_del2            =   3.3813898264153E-06
(PID.TID 0000.0001) %MON dynstat_vvel_max             =   3.8864057306707E-02
(PID.TID 0000.0001) %MON dynstat_vvel_min             =  -2.2660489250001E-02
(PID.TID 0000.0001) %MON dynstat_vvel_mean            =   1.8186410814118E-07
(PID.TID 0000.0001) %MON dynstat_vvel_sd              =   9.1020979689352E-04
(PID.TID 0000.0001) %MON dynstat_vvel_del2            =   2.3161830199398E-06
(PID.TID 0000.0001) %MON dynstat_wvel_max             =   2.6278410448585E-03
(PID.TID 0000.0001) %MON dynstat_wvel_min             =  -3.1442451121552E-03
(PID.TID 0000.0001) %MON dynstat_wvel_mean            =   5.6863730759848E-10
(PID.TID 0000.0001) %MON dynstat_wvel_sd              =   4.4692993024835E-05
(PID.TID 0000.0001) %MON dynstat_wvel_del2            =   1.6327812899569E-07
(PID.TID 0000.0001) %MON dynstat_theta_max            =   1.2000000000000E+00
(PID.TID 0000.0001) %MON dynstat_theta_min            =  -1.0000000000000E+00
(PID.TID 0000.0001) %MON dynstat_theta_mean           =   5.6470955046782E-01
(PID.TID 0000.0001) %MON dynstat_theta_sd             =   8.4875198320615E-01
(PID.TID 0000.0001) %MON dynstat_theta_del2           =   6.3751994569615E-06
(PID.TID 0000.0001) %MON dynstat_salt_max             =   3.4700000000000E+01
(PID.TID 0000.0001) %MON dynstat_salt_min             =   3.4000000000000E+01
(PID.TID 0000.0001) %MON dynstat_salt_mean            =   3.4497797932818E+01
(PID.TID 0000.0001) %MON dynstat_salt_sd              =   2.7004217671936E-01
(PID.TID 0000.0001) %MON dynstat_salt_del2            =   2.5274304253277E-06
(PID.TID 0000.0001) %MON advcfl_uvel_max              =   7.2975039663273E-03
(PID.TID 0000.0001) %MON advcfl_vvel_max              =   3.8864057306707E-03
(PID.TID 0000.0001) %MON advcfl_wvel_max              =   1.5721225560776E-02
(PID.TID 0000.0001) %MON advcfl_W_hf_max              =   1.5721225560776E-02
(PID.TID 0000.0001) %MON pe_b_mean                    =  -6.8090501935426E-01
(PID.TID 0000.0001) %MON ke_max                       =   2.5179661762632E-03
(PID.TID 0000.0001) %MON ke_mean                      =   2.6532876888546E-06
(PID.TID 0000.0001) %MON ke_vol                       =   4.6183278732477E+12
(PID.TID 0000.0001) // =======================================================
(PID.TID 0000.0001) // End MONITOR dynamic field statistics
(PID.TID 0000.0001) // =======================================================
(PID.TID 0000.0001) // =======================================================
(PID.TID 0000.0001) // Begin OBCS MONITOR field statistics
(PID.TID 0000.0001) // =======================================================
(PID.TID 0000.0001) %MON obc_N_vVel_max               =   1.1892214620695E-07
(PID.TID 0000.0001) %MON obc_N_vVel_min               =   1.1892214620695E-07
(PID.TID 0000.0001) %MON obc_N_vVel_mean              =   1.1892214620695E-07
(PID.TID 0000.0001) %MON obc_N_vVel_sd                =   2.8002280974765E-14
(PID.TID 0000.0001) %MON obc_N_vVel_Int               =   7.8488616496585E+00
(PID.TID 0000.0001) // =======================================================
(PID.TID 0000.0001) // End OBCS MONITOR field statistics
(PID.TID 0000.0001) // =======================================================
 cg2d: Sum(rhs),rhsMax =   3.00437003712379E+00  4.53036316223085E+02
(PID.TID 0000.0001)      cg2d_init_res =   6.94869251681915E-06
(PID.TID 0000.0001)      cg2d_iters(min,last) =      -1      80
(PID.TID 0000.0001)      cg2d_last_res =   7.96614500564404E-12
(PID.TID 0000.0001) // =======================================================
(PID.TID 0000.0001) // Begin MONITOR dynamic field statistics
(PID.TID 0000.0001) // =======================================================
(PID.TID 0000.0001) %MON time_tsnumber                =                  1571
(PID.TID 0000.0001) %MON time_secondsf                =   1.5710000000000E+05
(PID.TID 0000.0001) %MON dynstat_eta_max              =   5.7999215467080E+00
(PID.TID 0000.0001) %MON dynstat_eta_min              =  -1.4163756876022E+01
(PID.TID 0000.0001) %MON dynstat_eta_mean             =  -2.5205346929436E+00
(PID.TID 0000.0001) %MON dynstat_eta_sd               =   4.9400596991484E+00
(PID.TID 0000.0001) %MON dynstat_eta_del2             =   1.9059837281884E-01
(PID.TID 0000.0001) %MON dynstat_uvel_max             =   1.6235495328869E-02
(PID.TID 0000.0001) %MON dynstat_uvel_min             =  -7.3110709148263E-02
(PID.TID 0000.0001) %MON dynstat_uvel_mean            =   7.5062645945785E-09
(PID.TID 0000.0001) %MON dynstat_uvel_sd              =   2.1406495558490E-03
(PID.TID 0000.0001) %MON dynstat_uvel_del2            =   3.3888176194470E-06
(PID.TID 0000.0001) %MON dynstat_vvel_max             =   3.8906797306750E-02
(PID.TID 0000.0001) %MON dynstat_vvel_min             =  -2.2707122198984E-02
(PID.TID 0000.0001) %MON dynstat_vvel_mean            =   1.8219088239530E-07
(PID.TID 0000.0001) %MON dynstat_vvel_sd              =   9.1186404716251E-04
(PID.TID 0000.0001) %MON dynstat_vvel_del2            =   2.3199048320073E-06
(PID.TID 0000.0001) %MON dynstat_wvel_max             =   2.6314100933845E-03
(PID.TID 0000.0001) %MON dynstat_wvel_min             =  -3.1456736279985E-03
(PID.TID 0000.0001) %MON dynstat_wvel_mean            =   5.6702590515178E-10
(PID.TID 0000.0001) %MON dynstat_wvel_sd              =   4.4759521250035E-05
(PID.TID 0000.0001) %MON dynstat_wvel_del2            =   1.6346777709445E-07
(PID.TID 0000.0001) %MON dynstat_theta_max            =   1.2000000000000E+00
(PID.TID 0000.0001) %MON dynstat_theta_min            =  -1.0000000000000E+00
(PID.TID 0000.0001) %MON dynstat_theta_mean           =   5.6470812943351E-01
(PID.TID 0000.0001) %MON dynstat_theta_sd             =   8.4875137069285E-01
(PID.TID 0000.0001) %MON dynstat_theta_del2           =   6.3852546224759E-06
(PID.TID 0000.0001) %MON dynstat_salt_max             =   3.4700000000000E+01
(PID.TID 0000.0001) %MON dynstat_salt_min             =   3.4000000000000E+01
(PID.TID 0000.0001) %MON dynstat_salt_mean            =   3.4497797364473E+01
(PID.TID 0000.0001) %MON dynstat_salt_sd              =   2.7004194891450E-01
(PID.TID 0000.0001) %MON dynstat_salt_del2            =   2.5314308050039E-06
(PID.TID 0000.0001) %MON advcfl_uvel_max              =   7.3110709148263E-03
(PID.TID 0000.0001) %MON advcfl_vvel_max              =   3.8906797306750E-03
(PID.TID 0000.0001) %MON advcfl_wvel_max              =   1.5728368139993E-02
(PID.TID 0000.0001) %MON advcfl_W_hf_max              =   1.5728368139993E-02
(PID.TID 0000.0001) %MON pe_b_mean                    =  -6.8090118700770E-01
(PID.TID 0000.0001) %MON ke_max                       =   2.5278728340984E-03
(PID.TID 0000.0001) %MON ke_mean                      =   2.6638556436534E-06
(PID.TID 0000.0001) %MON ke_vol                       =   4.6183279485261E+12
(PID.TID 0000.0001) // =======================================================
(PID.TID 0000.0001) // End MONITOR dynamic field statistics
(PID.TID 0000.0001) // =======================================================
(PID.TID 0000.0001) // =======================================================
(PID.TID 0000.0001) // Begin OBCS MONITOR field statistics
(PID.TID 0000.0001) // =======================================================
(PID.TID 0000.0001) %MON obc_N_vVel_max               =   1.1937284328332E-07
(PID.TID 0000.0001) %MON obc_N_vVel_min               =   1.1937284328332E-07
(PID.TID 0000.0001) %MON obc_N_vVel_mean              =   1.1937284328332E-07
(PID.TID 0000.0001) %MON obc_N_vVel_sd                =   2.8642893384396E-14
(PID.TID 0000.0001) %MON obc_N_vVel_Int               =   7.8786076566990E+00
(PID.TID 0000.0001) // =======================================================
(PID.TID 0000.0001) // End OBCS MONITOR field statistics
(PID.TID 0000.0001) // =======================================================
 cg2d: Sum(rhs),rhsMax =   3.00435504058421E+00  4.53036292444285E+02
(PID.TID 0000.0001)      cg2d_init_res =   6.95872796396362E-06
(PID.TID 0000.0001)      cg2d_iters(min,last) =      -1      80
(PID.TID 0000.0001)      cg2d_last_res =   7.98004123554025E-12
(PID.TID 0000.0001) // =======================================================
(PID.TID 0000.0001) // Begin MONITOR dynamic field statistics
(PID.TID 0000.0001) // =======================================================
(PID.TID 0000.0001) %MON time_tsnumber                =                  1572
(PID.TID 0000.0001) %MON time_secondsf                =   1.5720000000000E+05
(PID.TID 0000.0001) %MON dynstat_eta_max              =   5.7999251348991E+00
(PID.TID 0000.0001) %MON dynstat_eta_min              =  -1.4163753343743E+01
(PID.TID 0000.0001) %MON dynstat_eta_mean             =  -2.5205219792085E+00
(PID.TID 0000.0001) %MON dynstat_eta_sd               =   4.9400560251217E+00
(PID.TID 0000.0001) %MON dynstat_eta_del2             =   1.9059841079066E-01
(PID.TID 0000.0001) %MON dynstat_uvel_max             =   1.6266903420171E-02
(PID.TID 0000.0001) %MON dynstat_uvel_min             =  -7.3246467222809E-02
(PID.TID 0000.0001) %MON dynstat_uvel_mean            =   7.5408497531029E-09
(PID.TID 0000.0001) %MON dynstat_uvel_sd              =   2.1449733635471E-03
(PID.TID 0000.0001) %MON dynstat_uvel_del2            =   3.3962584845957E-06
(PID.TID 0000.0001) %MON dynstat_vvel_max             =   3.8949528405531E-02
(PID.TID 0000.0001) %MON dynstat_vvel_min             =  -2.2753716779963E-02
(PID.TID 0000.0001) %MON dynstat_vvel_mean            =   1.8218101696850E-07
(PID.TID 0000.0001) %MON dynstat_vvel_sd              =   9.1352062282231E-04
(PID.TID 0000.0001) %MON dynstat_vvel_del2            =   2.3236307644262E-06
(PID.TID 0000.0001) %MON dynstat_wvel_max             =   2.6349777125901E-03
(PID.TID 0000.0001) %MON dynstat_wvel_min             =  -3.1470747163361E-03
(PID.TID 0000.0001) %MON dynstat_wvel_mean            =   5.6549883652907E-10
(PID.TID 0000.0001) %MON dynstat_wvel_sd              =   4.4826183390429E-05
(PID.TID 0000.0001) %MON dynstat_wvel_del2            =   1.6365848061484E-07
(PID.TID 0000.0001) %MON dynstat_theta_max            =   1.2000000000000E+00
(PID.TID 0000.0001) %MON dynstat_theta_min            =  -1.0000000000000E+00
(PID.TID 0000.0001) %MON dynstat_theta_mean           =   5.6470670610992E-01
(PID.TID 0000.0001) %MON dynstat_theta_sd             =   8.4875075740110E-01
(PID.TID 0000.0001) %MON dynstat_theta_del2           =   6.3953184908156E-06
(PID.TID 0000.0001) %MON dynstat_salt_max             =   3.4700000000000E+01
(PID.TID 0000.0001) %MON dynstat_salt_min             =   3.4000000000000E+01
(PID.TID 0000.0001) %MON dynstat_salt_mean            =   3.4497796795213E+01
(PID.TID 0000.0001) %MON dynstat_salt_sd              =   2.7004172084344E-01
(PID.TID 0000.0001) %MON dynstat_salt_del2            =   2.5354347824187E-06
(PID.TID 0000.0001) %MON advcfl_uvel_max              =   7.3246467222809E-03
(PID.TID 0000.0001) %MON advcfl_vvel_max              =   3.8949528405531E-03
(PID.TID 0000.0001) %MON advcfl_wvel_max              =   1.5735373581680E-02
(PID.TID 0000.0001) %MON advcfl_W_hf_max              =   1.5735373581680E-02
(PID.TID 0000.0001) %MON pe_b_mean                    =  -6.8089734839440E-01
(PID.TID 0000.0001) %MON ke_max                       =   2.5378033030450E-03
(PID.TID 0000.0001) %MON ke_mean                      =   2.6744584811581E-06
(PID.TID 0000.0001) %MON ke_vol                       =   4.6183280239239E+12
(PID.TID 0000.0001) // =======================================================
(PID.TID 0000.0001) // End MONITOR dynamic field statistics
(PID.TID 0000.0001) // =======================================================
(PID.TID 0000.0001) // =======================================================
(PID.TID 0000.0001) // Begin OBCS MONITOR field statistics
(PID.TID 0000.0001) // =======================================================
(PID.TID 0000.0001) %MON obc_N_vVel_max               =   1.1950164427133E-07
(PID.TID 0000.0001) %MON obc_N_vVel_min               =   1.1950164427133E-07
(PID.TID 0000.0001) %MON obc_N_vVel_mean              =   1.1950164427133E-07
(PID.TID 0000.0001) %MON obc_N_vVel_sd                =   2.7633627272834E-14
(PID.TID 0000.0001) %MON obc_N_vVel_Int               =   7.8871085219075E+00
(PID.TID 0000.0001) // =======================================================
(PID.TID 0000.0001) // End OBCS MONITOR field statistics
(PID.TID 0000.0001) // =======================================================
 cg2d: Sum(rhs),rhsMax =   3.00434001969823E+00  4.53036268587404E+02
(PID.TID 0000.0001)      cg2d_init_res =   6.96878046282977E-06
(PID.TID 0000.0001)      cg2d_iters(min,last) =      -1      80
(PID.TID 0000.0001)      cg2d_last_res =   7.99396154808325E-12
(PID.TID 0000.0001) // =======================================================
(PID.TID 0000.0001) // Begin MONITOR dynamic field statistics
(PID.TID 0000.0001) // =======================================================
(PID.TID 0000.0001) %MON time_tsnumber                =                  1573
(PID.TID 0000.0001) %MON time_secondsf                =   1.5730000000000E+05
(PID.TID 0000.0001) %MON dynstat_eta_max              =   5.7999287326856E+00
(PID.TID 0000.0001) %MON dynstat_eta_min              =  -1.4163749807618E+01
(PID.TID 0000.0001) %MON dynstat_eta_mean             =  -2.5205092446146E+00
(PID.TID 0000.0001) %MON dynstat_eta_sd               =   4.9400523445564E+00
(PID.TID 0000.0001) %MON dynstat_eta_del2             =   1.9059844881298E-01
(PID.TID 0000.0001) %MON dynstat_uvel_max             =   1.6298335166963E-02
(PID.TID 0000.0001) %MON dynstat_uvel_min             =  -7.3382313929624E-02
(PID.TID 0000.0001) %MON dynstat_uvel_mean            =   7.5749250469662E-09
(PID.TID 0000.0001) %MON dynstat_uvel_sd              =   2.1493027378665E-03
(PID.TID 0000.0001) %MON dynstat_uvel_del2            =   3.4037124308127E-06
(PID.TID 0000.0001) %MON dynstat_vvel_max             =   3.8992250541805E-02
(PID.TID 0000.0001) %MON dynstat_vvel_min             =  -2.2800271630457E-02
(PID.TID 0000.0001) %MON dynstat_vvel_mean            =   1.8184832570470E-07
(PID.TID 0000.0001) %MON dynstat_vvel_sd              =   9.1517950284257E-04
(PID.TID 0000.0001) %MON dynstat_vvel_del2            =   2.3273607553289E-06
(PID.TID 0000.0001) %MON dynstat_wvel_max             =   2.6385438761075E-03
(PID.TID 0000.0001) %MON dynstat_wvel_min             =  -3.1484483245285E-03
(PID.TID 0000.0001) %MON dynstat_wvel_mean            =   5.6410988276840E-10
(PID.TID 0000.0001) %MON dynstat_wvel_sd              =   4.4892907421675E-05
(PID.TID 0000.0001) %MON dynstat_wvel_del2            =   1.6385005059454E-07
(PID.TID 0000.0001) %MON dynstat_theta_max            =   1.2000000000000E+00
(PID.TID 0000.0001) %MON dynstat_theta_min            =  -1.0000000000000E+00
(PID.TID 0000.0001) %MON dynstat_theta_mean           =   5.6470528049427E-01
(PID.TID 0000.0001) %MON dynstat_theta_sd             =   8.4875014333061E-01
(PID.TID 0000.0001) %MON dynstat_theta_del2           =   6.4053912183251E-06
(PID.TID 0000.0001) %MON dynstat_salt_max             =   3.4700000000000E+01
(PID.TID 0000.0001) %MON dynstat_salt_min             =   3.4000000000000E+01
(PID.TID 0000.0001) %MON dynstat_salt_mean            =   3.4497796225036E+01
(PID.TID 0000.0001) %MON dynstat_salt_sd              =   2.7004149250649E-01
(PID.TID 0000.0001) %MON dynstat_salt_del2            =   2.5394423961635E-06
(PID.TID 0000.0001) %MON advcfl_uvel_max              =   7.3382313929624E-03
(PID.TID 0000.0001) %MON advcfl_vvel_max              =   3.8992250541805E-03
(PID.TID 0000.0001) %MON advcfl_wvel_max              =   1.5742241622643E-02
(PID.TID 0000.0001) %MON advcfl_W_hf_max              =   1.5742241622643E-02
(PID.TID 0000.0001) %MON pe_b_mean                    =  -6.8089350344159E-01
(PID.TID 0000.0001) %MON ke_max                       =   2.5477575227747E-03
(PID.TID 0000.0001) %MON ke_mean                      =   2.6850962549188E-06
(PID.TID 0000.0001) %MON ke_vol                       =   4.6183280994435E+12
(PID.TID 0000.0001) // =======================================================
(PID.TID 0000.0001) // End MONITOR dynamic field statistics
(PID.TID 0000.0001) // =======================================================
(PID.TID 0000.0001) // =======================================================
(PID.TID 0000.0001) // Begin OBCS MONITOR field statistics
(PID.TID 0000.0001) // =======================================================
(PID.TID 0000.0001) %MON obc_N_vVel_max               =   1.1931658669942E-07
(PID.TID 0000.0001) %MON obc_N_vVel_min               =   1.1931658669941E-07
(PID.TID 0000.0001) %MON obc_N_vVel_mean              =   1.1931658669941E-07
(PID.TID 0000.0001) %MON obc_N_vVel_sd                =   2.0175535360779E-14
(PID.TID 0000.0001) %MON obc_N_vVel_Int               =   7.8748947221613E+00
(PID.TID 0000.0001) // =======================================================
(PID.TID 0000.0001) // End OBCS MONITOR field statistics
(PID.TID 0000.0001) // =======================================================
 cg2d: Sum(rhs),rhsMax =   3.00432497404749E+00  4.53036244652964E+02
(PID.TID 0000.0001)      cg2d_init_res =   6.97884520146435E-06
(PID.TID 0000.0001)      cg2d_iters(min,last) =      -1      80
(PID.TID 0000.0001)      cg2d_last_res =   8.00791587047401E-12
(PID.TID 0000.0001) // =======================================================
(PID.TID 0000.0001) // Begin MONITOR dynamic field statistics
(PID.TID 0000.0001) // =======================================================
(PID.TID 0000.0001) %MON time_tsnumber                =                  1574
(PID.TID 0000.0001) %MON time_secondsf                =   1.5740000000000E+05
(PID.TID 0000.0001) %MON dynstat_eta_max              =   5.7999323406747E+00
(PID.TID 0000.0001) %MON dynstat_eta_min              =  -1.4163746267119E+01
(PID.TID 0000.0001) %MON dynstat_eta_mean             =  -2.5204964888141E+00
(PID.TID 0000.0001) %MON dynstat_eta_sd               =   4.9400486573583E+00
(PID.TID 0000.0001) %MON dynstat_eta_del2             =   1.9059848688576E-01
(PID.TID 0000.0001) %MON dynstat_uvel_max             =   1.6329790398921E-02
(PID.TID 0000.0001) %MON dynstat_uvel_min             =  -7.3518249309085E-02
(PID.TID 0000.0001) %MON dynstat_uvel_mean            =   7.6081088457831E-09
(PID.TID 0000.0001) %MON dynstat_uvel_sd              =   2.1536376741477E-03
(PID.TID 0000.0001) %MON dynstat_uvel_del2            =   3.4111794667984E-06
(PID.TID 0000.0001) %MON dynstat_vvel_max             =   3.9034963653978E-02
(PID.TID 0000.0001) %MON dynstat_vvel_min             =  -2.2846785378350E-02
(PID.TID 0000.0001) %MON dynstat_vvel_mean            =   1.8121391566064E-07
(PID.TID 0000.0001) %MON dynstat_vvel_sd              =   9.1684066542754E-04
(PID.TID 0000.0001) %MON dynstat_vvel_del2            =   2.3310947338760E-06
(PID.TID 0000.0001) %MON dynstat_wvel_max             =   2.6421085576495E-03
(PID.TID 0000.0001) %MON dynstat_wvel_min             =  -3.1497944019602E-03
(PID.TID 0000.0001) %MON dynstat_wvel_mean            =   5.6290867768692E-10
(PID.TID 0000.0001) %MON dynstat_wvel_sd              =   4.4959616096205E-05
(PID.TID 0000.0001) %MON dynstat_wvel_del2            =   1.6404224741593E-07
(PID.TID 0000.0001) %MON dynstat_theta_max            =   1.2000000000000E+00
(PID.TID 0000.0001) %MON dynstat_theta_min            =  -1.0000000000000E+00
(PID.TID 0000.0001) %MON dynstat_theta_mean           =   5.6470385258379E-01
(PID.TID 0000.0001) %MON dynstat_theta_sd             =   8.4874952848222E-01
(PID.TID 0000.0001) %MON dynstat_theta_del2           =   6.4154728537541E-06
(PID.TID 0000.0001) %MON dynstat_salt_max             =   3.4700000000000E+01
(PID.TID 0000.0001) %MON dynstat_salt_min             =   3.4000000000000E+01
(PID.TID 0000.0001) %MON dynstat_salt_mean            =   3.4497795653940E+01
(PID.TID 0000.0001) %MON dynstat_salt_sd              =   2.7004126390368E-01
(PID.TID 0000.0001) %MON dynstat_salt_del2            =   2.5434536932977E-06
(PID.TID 0000.0001) %MON advcfl_uvel_max              =   7.3518249309085E-03
(PID.TID 0000.0001) %MON advcfl_vvel_max              =   3.9034963653978E-03
(PID.TID 0000.0001) %MON advcfl_wvel_max              =   1.5748972009801E-02
(PID.TID 0000.0001) %MON advcfl_W_hf_max              =   1.5748972009801E-02
(PID.TID 0000.0001) %MON pe_b_mean                    =  -6.8088965208142E-01
(PID.TID 0000.0001) %MON ke_max                       =   2.5577354321150E-03
(PID.TID 0000.0001) %MON ke_mean                      =   2.6957690175194E-06
(PID.TID 0000.0001) %MON ke_vol                       =   4.6183281750870E+12
(PID.TID 0000.0001) // =======================================================
(PID.TID 0000.0001) // End MONITOR dynamic field statistics
(PID.TID 0000.0001) // =======================================================
(PID.TID 0000.0001) // =======================================================
(PID.TID 0000.0001) // Begin OBCS MONITOR field statistics
(PID.TID 0000.0001) // =======================================================
(PID.TID 0000.0001) %MON obc_N_vVel_max               =   1.1883292811570E-07
(PID.TID 0000.0001) %MON obc_N_vVel_min               =   1.1883292811570E-07
(PID.TID 0000.0001) %MON obc_N_vVel_mean              =   1.1883292811570E-07
(PID.TID 0000.0001) %MON obc_N_vVel_sd                =   2.2539441496238E-14
(PID.TID 0000.0001) %MON obc_N_vVel_Int               =   7.8429732556361E+00
(PID.TID 0000.0001) // =======================================================
(PID.TID 0000.0001) // End OBCS MONITOR field statistics
(PID.TID 0000.0001) // =======================================================
 cg2d: Sum(rhs),rhsMax =   3.00430990323578E+00  4.53036220642598E+02
(PID.TID 0000.0001)      cg2d_init_res =   6.98891255079246E-06
(PID.TID 0000.0001)      cg2d_iters(min,last) =      -1      80
(PID.TID 0000.0001)      cg2d_last_res =   8.02190712375024E-12
(PID.TID 0000.0001) // =======================================================
(PID.TID 0000.0001) // Begin MONITOR dynamic field statistics
(PID.TID 0000.0001) // =======================================================
(PID.TID 0000.0001) %MON time_tsnumber                =                  1575
(PID.TID 0000.0001) %MON time_secondsf                =   1.5750000000000E+05
(PID.TID 0000.0001) %MON dynstat_eta_max              =   5.7999359594141E+00
(PID.TID 0000.0001) %MON dynstat_eta_min              =  -1.4163742721782E+01
(PID.TID 0000.0001) %MON dynstat_eta_mean             =  -2.5204837114835E+00
(PID.TID 0000.0001) %MON dynstat_eta_sd               =   4.9400449634485E+00
(PID.TID 0000.0001) %MON dynstat_eta_del2             =   1.9059852500904E-01
(PID.TID 0000.0001) %MON dynstat_uvel_max             =   1.6361268945916E-02
(PID.TID 0000.0001) %MON dynstat_uvel_min             =  -7.3654273400528E-02
(PID.TID 0000.0001) %MON dynstat_uvel_mean            =   7.6400666496595E-09
(PID.TID 0000.0001) %MON dynstat_uvel_sd              =   2.1579781676430E-03
(PID.TID 0000.0001) %MON dynstat_uvel_del2            =   3.4186596008323E-06
(PID.TID 0000.0001) %MON dynstat_vvel_max             =   3.9077667680032E-02
(PID.TID 0000.0001) %MON dynstat_vvel_min             =  -2.2893256636246E-02
(PID.TID 0000.0001) %MON dynstat_vvel_mean            =   1.8030563984274E-07
(PID.TID 0000.0001) %MON dynstat_vvel_sd              =   9.1850408913319E-04
(PID.TID 0000.0001) %MON dynstat_vvel_del2            =   2.3348326263280E-06
(PID.TID 0000.0001) %MON dynstat_wvel_max             =   2.6456717309830E-03
(PID.TID 0000.0001) %MON dynstat_wvel_min             =  -3.1511129002017E-03
(PID.TID 0000.0001) %MON dynstat_wvel_mean            =   5.6193957726532E-10
(PID.TID 0000.0001) %MON dynstat_wvel_sd              =   4.5026230578118E-05
(PID.TID 0000.0001) %MON dynstat_wvel_del2            =   1.6423479533026E-07
(PID.TID 0000.0001) %MON dynstat_theta_max            =   1.2000000000000E+00
(PID.TID 0000.0001) %MON dynstat_theta_min            =  -1.0000000000000E+00
(PID.TID 0000.0001) %MON dynstat_theta_mean           =   5.6470242237574E-01
(PID.TID 0000.0001) %MON dynstat_theta_sd             =   8.4874891285627E-01
(PID.TID 0000.0001) %MON dynstat_theta_del2           =   6.4255636250827E-06
(PID.TID 0000.0001) %MON dynstat_salt_max             =   3.4700000000000E+01
(PID.TID 0000.0001) %MON dynstat_salt_min             =   3.4000000000000E+01
(PID.TID 0000.0001) %MON dynstat_salt_mean            =   3.4497795081925E+01
(PID.TID 0000.0001) %MON dynstat_salt_sd              =   2.7004103503558E-01
(PID.TID 0000.0001) %MON dynstat_salt_del2            =   2.5474687331014E-06
(PID.TID 0000.0001) %MON advcfl_uvel_max              =   7.3654273400528E-03
(PID.TID 0000.0001) %MON advcfl_vvel_max              =   3.9077667680032E-03
(PID.TID 0000.0001) %MON advcfl_wvel_max              =   1.5755564501009E-02
(PID.TID 0000.0001) %MON advcfl_W_hf_max              =   1.5755564501009E-02
(PID.TID 0000.0001) %MON pe_b_mean                    =  -6.8088579425244E-01
(PID.TID 0000.0001) %MON ke_max                       =   2.5677369690634E-03
(PID.TID 0000.0001) %MON ke_mean                      =   2.7064768215643E-06
(PID.TID 0000.0001) %MON ke_vol                       =   4.6183282508564E+12
(PID.TID 0000.0001) // =======================================================
(PID.TID 0000.0001) // End MONITOR dynamic field statistics
(PID.TID 0000.0001) // =======================================================
(PID.TID 0000.0001) // =======================================================
(PID.TID 0000.0001) // Begin OBCS MONITOR field statistics
(PID.TID 0000.0001) // =======================================================
(PID.TID 0000.0001) %MON obc_N_vVel_max               =   1.1807271378119E-07
(PID.TID 0000.0001) %MON obc_N_vVel_min               =   1.1807271378119E-07
(PID.TID 0000.0001) %MON obc_N_vVel_mean              =   1.1807271378119E-07
(PID.TID 0000.0001) %MON obc_N_vVel_sd                =  -3.0765575303619E-28
(PID.TID 0000.0001) %MON obc_N_vVel_Int               =   7.7927991095584E+00
(PID.TID 0000.0001) // =======================================================
(PID.TID 0000.0001) // End OBCS MONITOR field statistics
(PID.TID 0000.0001) // =======================================================
 cg2d: Sum(rhs),rhsMax =   3.00429480689685E+00  4.53036196559053E+02
(PID.TID 0000.0001)      cg2d_init_res =   6.99898931957852E-06
(PID.TID 0000.0001)      cg2d_iters(min,last) =      -1      80
(PID.TID 0000.0001)      cg2d_last_res =   8.03592578768420E-12
(PID.TID 0000.0001) // =======================================================
(PID.TID 0000.0001) // Begin MONITOR dynamic field statistics
(PID.TID 0000.0001) // =======================================================
(PID.TID 0000.0001) %MON time_tsnumber                =                  1576
(PID.TID 0000.0001) %MON time_secondsf                =   1.5760000000000E+05
(PID.TID 0000.0001) %MON dynstat_eta_max              =   5.7999395893808E+00
(PID.TID 0000.0001) %MON dynstat_eta_min              =  -1.4163739171208E+01
(PID.TID 0000.0001) %MON dynstat_eta_mean             =  -2.5204709123309E+00
(PID.TID 0000.0001) %MON dynstat_eta_sd               =   4.9400412627625E+00
(PID.TID 0000.0001) %MON dynstat_eta_del2             =   1.9059856318288E-01
(PID.TID 0000.0001) %MON dynstat_uvel_max             =   1.6392770635673E-02
(PID.TID 0000.0001) %MON dynstat_uvel_min             =  -7.3790386237640E-02
(PID.TID 0000.0001) %MON dynstat_uvel_mean            =   7.6705142404337E-09
(PID.TID 0000.0001) %MON dynstat_uvel_sd              =   2.1623242135259E-03
(PID.TID 0000.0001) %MON dynstat_uvel_del2            =   3.4261528411863E-06
(PID.TID 0000.0001) %MON dynstat_vvel_max             =   3.9120362557364E-02
(PID.TID 0000.0001) %MON dynstat_vvel_min             =  -2.2939684012176E-02
(PID.TID 0000.0001) %MON dynstat_vvel_mean            =   1.7915739405619E-07
(PID.TID 0000.0001) %MON dynstat_vvel_sd              =   9.2016975392940E-04
(PID.TID 0000.0001) %MON dynstat_vvel_del2            =   2.3385743564642E-06
(PID.TID 0000.0001) %MON dynstat_wvel_max             =   2.6492333699684E-03
(PID.TID 0000.0001) %MON dynstat_wvel_min             =  -3.1524037726718E-03
(PID.TID 0000.0001) %MON dynstat_wvel_mean            =   5.6124136850238E-10
(PID.TID 0000.0001) %MON dynstat_wvel_sd              =   4.5092674110136E-05
(PID.TID 0000.0001) %MON dynstat_wvel_del2            =   1.6442739541332E-07
(PID.TID 0000.0001) %MON dynstat_theta_max            =   1.2000000000000E+00
(PID.TID 0000.0001) %MON dynstat_theta_min            =  -1.0000000000000E+00
(PID.TID 0000.0001) %MON dynstat_theta_mean           =   5.6470098986744E-01
(PID.TID 0000.0001) %MON dynstat_theta_sd             =   8.4874829645435E-01
(PID.TID 0000.0001) %MON dynstat_theta_del2           =   6.4356636923227E-06
(PID.TID 0000.0001) %MON dynstat_salt_max             =   3.4700000000000E+01
(PID.TID 0000.0001) %MON dynstat_salt_min             =   3.4000000000000E+01
(PID.TID 0000.0001) %MON dynstat_salt_mean            =   3.4497794508991E+01
(PID.TID 0000.0001) %MON dynstat_salt_sd              =   2.7004080590263E-01
(PID.TID 0000.0001) %MON dynstat_salt_del2            =   2.5514875545349E-06
(PID.TID 0000.0001) %MON advcfl_uvel_max              =   7.3790386237640E-03
(PID.TID 0000.0001) %MON advcfl_vvel_max              =   3.9120362557364E-03
(PID.TID 0000.0001) %MON advcfl_wvel_max              =   1.5762018863359E-02
(PID.TID 0000.0001) %MON advcfl_W_hf_max              =   1.5762018863359E-02
(PID.TID 0000.0001) %MON pe_b_mean                    =  -6.8088192990078E-01
(PID.TID 0000.0001) %MON ke_max                       =   2.5777620707855E-03
(PID.TID 0000.0001) %MON ke_mean                      =   2.7172197206752E-06
(PID.TID 0000.0001) %MON ke_vol                       =   4.6183283267538E+12
(PID.TID 0000.0001) // =======================================================
(PID.TID 0000.0001) // End MONITOR dynamic field statistics
(PID.TID 0000.0001) // =======================================================
(PID.TID 0000.0001) // =======================================================
(PID.TID 0000.0001) // Begin OBCS MONITOR field statistics
(PID.TID 0000.0001) // =======================================================
(PID.TID 0000.0001) %MON obc_N_vVel_max               =   1.1706414591016E-07
(PID.TID 0000.0001) %MON obc_N_vVel_min               =   1.1706414591016E-07
(PID.TID 0000.0001) %MON obc_N_vVel_mean              =   1.1706414591016E-07
(PID.TID 0000.0001) %MON obc_N_vVel_sd                =   3.0014648986160E-14
(PID.TID 0000.0001) %MON obc_N_vVel_Int               =   7.7262336300703E+00
(PID.TID 0000.0001) // =======================================================
(PID.TID 0000.0001) // End OBCS MONITOR field statistics
(PID.TID 0000.0001) // =======================================================
 cg2d: Sum(rhs),rhsMax =   3.00427968470090E+00  4.53036172406139E+02
(PID.TID 0000.0001)      cg2d_init_res =   7.00906279924340E-06
(PID.TID 0000.0001)      cg2d_iters(min,last) =      -1      80
(PID.TID 0000.0001)      cg2d_last_res =   8.04998021744510E-12
(PID.TID 0000.0001) // =======================================================
(PID.TID 0000.0001) // Begin MONITOR dynamic field statistics
(PID.TID 0000.0001) // =======================================================
(PID.TID 0000.0001) %MON time_tsnumber                =                  1577
(PID.TID 0000.0001) %MON time_secondsf                =   1.5770000000000E+05
(PID.TID 0000.0001) %MON dynstat_eta_max              =   5.7999432309776E+00
(PID.TID 0000.0001) %MON dynstat_eta_min              =  -1.4163735615064E+01
(PID.TID 0000.0001) %MON dynstat_eta_mean             =  -2.5204580911008E+00
(PID.TID 0000.0001) %MON dynstat_eta_sd               =   4.9400375552528E+00
(PID.TID 0000.0001) %MON dynstat_eta_del2             =   1.9059860140744E-01
(PID.TID 0000.0001) %MON dynstat_uvel_max             =   1.6424295354886E-02
(PID.TID 0000.0001) %MON dynstat_uvel_min             =  -7.3926587852618E-02
(PID.TID 0000.0001) %MON dynstat_uvel_mean            =   7.6992299577882E-09
(PID.TID 0000.0001) %MON dynstat_uvel_sd              =   2.1666758068983E-03
(PID.TID 0000.0001) %MON dynstat_uvel_del2            =   3.4336591959302E-06
(PID.TID 0000.0001) %MON dynstat_vvel_max             =   3.9163048222737E-02
(PID.TID 0000.0001) %MON dynstat_vvel_min             =  -2.2986066102401E-02
(PID.TID 0000.0001) %MON dynstat_vvel_mean            =   1.7780827040196E-07
(PID.TID 0000.0001) %MON dynstat_vvel_sd              =   9.2183764227613E-04
(PID.TID 0000.0001) %MON dynstat_vvel_del2            =   2.3423198517025E-06
(PID.TID 0000.0001) %MON dynstat_wvel_max             =   2.6527934485154E-03
(PID.TID 0000.0001) %MON dynstat_wvel_min             =  -3.1536669748462E-03
(PID.TID 0000.0001) %MON dynstat_wvel_mean            =   5.6084612722437E-10
(PID.TID 0000.0001) %MON dynstat_wvel_sd              =   4.5158875884405E-05
(PID.TID 0000.0001) %MON dynstat_wvel_del2            =   1.6461974458349E-07
(PID.TID 0000.0001) %MON dynstat_theta_max            =   1.2000000000000E+00
(PID.TID 0000.0001) %MON dynstat_theta_min            =  -1.0000000000000E+00
(PID.TID 0000.0001) %MON dynstat_theta_mean           =   5.6469955505617E-01
(PID.TID 0000.0001) %MON dynstat_theta_sd             =   8.4874767927766E-01
(PID.TID 0000.0001) %MON dynstat_theta_del2           =   6.4457736094448E-06
(PID.TID 0000.0001) %MON dynstat_salt_max             =   3.4700000000000E+01
(PID.TID 0000.0001) %MON dynstat_salt_min             =   3.4000000000000E+01
(PID.TID 0000.0001) %MON dynstat_salt_mean            =   3.4497793935134E+01
(PID.TID 0000.0001) %MON dynstat_salt_sd              =   2.7004057650542E-01
(PID.TID 0000.0001) %MON dynstat_salt_del2            =   2.5555103957565E-06
(PID.TID 0000.0001) %MON advcfl_uvel_max              =   7.3926587852618E-03
(PID.TID 0000.0001) %MON advcfl_vvel_max              =   3.9163048222737E-03
(PID.TID 0000.0001) %MON advcfl_wvel_max              =   1.5768334874231E-02
(PID.TID 0000.0001) %MON advcfl_W_hf_max              =   1.5768334874231E-02
(PID.TID 0000.0001) %MON pe_b_mean                    =  -6.8087805898100E-01
(PID.TID 0000.0001) %MON ke_max                       =   2.5878106736777E-03
(PID.TID 0000.0001) %MON ke_mean                      =   2.7279977705085E-06
(PID.TID 0000.0001) %MON ke_vol                       =   4.6183284027808E+12
(PID.TID 0000.0001) // =======================================================
(PID.TID 0000.0001) // End MONITOR dynamic field statistics
(PID.TID 0000.0001) // =======================================================
(PID.TID 0000.0001) // =======================================================
(PID.TID 0000.0001) // Begin OBCS MONITOR field statistics
(PID.TID 0000.0001) // =======================================================
(PID.TID 0000.0001) %MON obc_N_vVel_max               =   1.1584085981393E-07
(PID.TID 0000.0001) %MON obc_N_vVel_min               =   1.1584085981393E-07
(PID.TID 0000.0001) %MON obc_N_vVel_mean              =   1.1584085981393E-07
(PID.TID 0000.0001) %MON obc_N_vVel_sd                =   8.5191081270479E-15
(PID.TID 0000.0001) %MON obc_N_vVel_Int               =   7.6454967477195E+00
(PID.TID 0000.0001) // =======================================================
(PID.TID 0000.0001) // End OBCS MONITOR field statistics
(PID.TID 0000.0001) // =======================================================
 cg2d: Sum(rhs),rhsMax =   3.00426453636305E+00  4.53036148188613E+02
(PID.TID 0000.0001)      cg2d_init_res =   7.01913202653567E-06
(PID.TID 0000.0001)      cg2d_iters(min,last) =      -1      80
(PID.TID 0000.0001)      cg2d_last_res =   8.06407471187824E-12
(PID.TID 0000.0001) // =======================================================
(PID.TID 0000.0001) // Begin MONITOR dynamic field statistics
(PID.TID 0000.0001) // =======================================================
(PID.TID 0000.0001) %MON time_tsnumber                =                  1578
(PID.TID 0000.0001) %MON time_secondsf                =   1.5780000000000E+05
(PID.TID 0000.0001) %MON dynstat_eta_max              =   5.7999468845224E+00
(PID.TID 0000.0001) %MON dynstat_eta_min              =  -1.4163732053105E+01
(PID.TID 0000.0001) %MON dynstat_eta_mean             =  -2.5204452475807E+00
(PID.TID 0000.0001) %MON dynstat_eta_sd               =   4.9400338408904E+00
(PID.TID 0000.0001) %MON dynstat_eta_del2             =   1.9059863968300E-01
(PID.TID 0000.0001) %MON dynstat_uvel_max             =   1.6455842912898E-02
(PID.TID 0000.0001) %MON dynstat_uvel_min             =  -7.4062878273615E-02
(PID.TID 0000.0001) %MON dynstat_uvel_mean            =   7.7260452864243E-09
(PID.TID 0000.0001) %MON dynstat_uvel_sd              =   2.1710329427826E-03
(PID.TID 0000.0001) %MON dynstat_uvel_del2            =   3.4411786722154E-06
(PID.TID 0000.0001) %MON dynstat_vvel_max             =   3.9205724612091E-02
(PID.TID 0000.0001) %MON dynstat_vvel_min             =  -2.3032401495579E-02
(PID.TID 0000.0001) %MON dynstat_vvel_mean            =   1.7630160305960E-07
(PID.TID 0000.0001) %MON dynstat_vvel_sd              =   9.2350774011463E-04
(PID.TID 0000.0001) %MON dynstat_vvel_del2            =   2.3460690476937E-06
(PID.TID 0000.0001) %MON dynstat_wvel_max             =   2.6563519406219E-03
(PID.TID 0000.0001) %MON dynstat_wvel_min             =  -3.1549024643745E-03
(PID.TID 0000.0001) %MON dynstat_wvel_mean            =   5.6077860809429E-10
(PID.TID 0000.0001) %MON dynstat_wvel_sd              =   4.5224774616882E-05
(PID.TID 0000.0001) %MON dynstat_wvel_del2            =   1.6481155361918E-07
(PID.TID 0000.0001) %MON dynstat_theta_max            =   1.2000000000000E+00
(PID.TID 0000.0001) %MON dynstat_theta_min            =  -1.0000000000000E+00
(PID.TID 0000.0001) %MON dynstat_theta_mean           =   5.6469811793930E-01
(PID.TID 0000.0001) %MON dynstat_theta_sd             =   8.4874706132800E-01
(PID.TID 0000.0001) %MON dynstat_theta_del2           =   6.4558931363044E-06
(PID.TID 0000.0001) %MON dynstat_salt_max             =   3.4700000000000E+01
(PID.TID 0000.0001) %MON dynstat_salt_min             =   3.4000000000000E+01
(PID.TID 0000.0001) %MON dynstat_salt_mean            =   3.4497793360356E+01
(PID.TID 0000.0001) %MON dynstat_salt_sd              =   2.7004034684467E-01
(PID.TID 0000.0001) %MON dynstat_salt_del2            =   2.5595370932911E-06
(PID.TID 0000.0001) %MON advcfl_uvel_max              =   7.4062878273615E-03
(PID.TID 0000.0001) %MON advcfl_vvel_max              =   3.9205724612091E-03
(PID.TID 0000.0001) %MON advcfl_wvel_max              =   1.5774512321872E-02
(PID.TID 0000.0001) %MON advcfl_W_hf_max              =   1.5774512321872E-02
(PID.TID 0000.0001) %MON pe_b_mean                    =  -6.8087418145723E-01
(PID.TID 0000.0001) %MON ke_max                       =   2.5978827133573E-03
(PID.TID 0000.0001) %MON ke_mean                      =   2.7388110296719E-06
(PID.TID 0000.0001) %MON ke_vol                       =   4.6183284789389E+12
(PID.TID 0000.0001) // =======================================================
(PID.TID 0000.0001) // End MONITOR dynamic field statistics
(PID.TID 0000.0001) // =======================================================
(PID.TID 0000.0001) // =======================================================
(PID.TID 0000.0001) // Begin OBCS MONITOR field statistics
(PID.TID 0000.0001) // =======================================================
(PID.TID 0000.0001) %MON obc_N_vVel_max               =   1.1444109629758E-07
(PID.TID 0000.0001) %MON obc_N_vVel_min               =   1.1444109629758E-07
(PID.TID 0000.0001) %MON obc_N_vVel_mean              =   1.1444109629758E-07
(PID.TID 0000.0001) %MON obc_N_vVel_sd                =  -5.7744618262178E-28
(PID.TID 0000.0001) %MON obc_N_vVel_Int               =   7.5531123556406E+00
(PID.TID 0000.0001) // =======================================================
(PID.TID 0000.0001) // End OBCS MONITOR field statistics
(PID.TID 0000.0001) // =======================================================
 cg2d: Sum(rhs),rhsMax =   3.00424936164863E+00  4.53036123912122E+02
(PID.TID 0000.0001)      cg2d_init_res =   7.02918531973120E-06
(PID.TID 0000.0001)      cg2d_iters(min,last) =      -1      80
(PID.TID 0000.0001)      cg2d_last_res =   8.07819436407197E-12
(PID.TID 0000.0001) // =======================================================
(PID.TID 0000.0001) // Begin MONITOR dynamic field statistics
(PID.TID 0000.0001) // =======================================================
(PID.TID 0000.0001) %MON time_tsnumber                =                  1579
(PID.TID 0000.0001) %MON time_secondsf                =   1.5790000000000E+05
(PID.TID 0000.0001) %MON dynstat_eta_max              =   5.7999505502431E+00
(PID.TID 0000.0001) %MON dynstat_eta_min              =  -1.4163728485164E+01
(PID.TID 0000.0001) %MON dynstat_eta_mean             =  -2.5204323816051E+00
(PID.TID 0000.0001) %MON dynstat_eta_sd               =   4.9400301196628E+00
(PID.TID 0000.0001) %MON dynstat_eta_del2             =   1.9059867800960E-01
(PID.TID 0000.0001) %MON dynstat_uvel_max             =   1.6487413137710E-02
(PID.TID 0000.0001) %MON dynstat_uvel_min             =  -7.4199257525276E-02
(PID.TID 0000.0001) %MON dynstat_uvel_mean            =   7.7508489001367E-09
(PID.TID 0000.0001) %MON dynstat_uvel_sd              =   2.1753956161435E-03
(PID.TID 0000.0001) %MON dynstat_uvel_del2            =   3.4487112777412E-06
(PID.TID 0000.0001) %MON dynstat_vvel_max             =   3.9248391660408E-02
(PID.TID 0000.0001) %MON dynstat_vvel_min             =  -2.3078688771715E-02
(PID.TID 0000.0001) %MON dynstat_vvel_mean            =   1.7468393456702E-07
(PID.TID 0000.0001) %MON dynstat_vvel_sd              =   9.2518003762759E-04
(PID.TID 0000.0001) %MON dynstat_vvel_del2            =   2.3498218919563E-06
(PID.TID 0000.0001) %MON dynstat_wvel_max             =   2.6599088203658E-03
(PID.TID 0000.0001) %MON dynstat_wvel_min             =  -3.1561102009333E-03
(PID.TID 0000.0001) %MON dynstat_wvel_mean            =   5.6105618595192E-10
(PID.TID 0000.0001) %MON dynstat_wvel_sd              =   4.5290321778337E-05
(PID.TID 0000.0001) %MON dynstat_wvel_del2            =   1.6500256524193E-07
(PID.TID 0000.0001) %MON dynstat_theta_max            =   1.2000000000000E+00
(PID.TID 0000.0001) %MON dynstat_theta_min            =  -1.0000000000000E+00
(PID.TID 0000.0001) %MON dynstat_theta_mean           =   5.6469667851435E-01
(PID.TID 0000.0001) %MON dynstat_theta_sd             =   8.4874644260732E-01
(PID.TID 0000.0001) %MON dynstat_theta_del2           =   6.4660223665283E-06
(PID.TID 0000.0001) %MON dynstat_salt_max             =   3.4700000000000E+01
(PID.TID 0000.0001) %MON dynstat_salt_min             =   3.4000000000000E+01
(PID.TID 0000.0001) %MON dynstat_salt_mean            =   3.4497792784655E+01
(PID.TID 0000.0001) %MON dynstat_salt_sd              =   2.7004011692120E-01
(PID.TID 0000.0001) %MON dynstat_salt_del2            =   2.5635676675280E-06
(PID.TID 0000.0001) %MON advcfl_uvel_max              =   7.4199257525276E-03
(PID.TID 0000.0001) %MON advcfl_vvel_max              =   3.9248391660408E-03
(PID.TID 0000.0001) %MON advcfl_wvel_max              =   1.5780551004666E-02
(PID.TID 0000.0001) %MON advcfl_W_hf_max              =   1.5780551004666E-02
(PID.TID 0000.0001) %MON pe_b_mean                    =  -6.8087029730381E-01
(PID.TID 0000.0001) %MON ke_max                       =   2.6079781246124E-03
(PID.TID 0000.0001) %MON ke_mean                      =   2.7496595605001E-06
(PID.TID 0000.0001) %MON ke_vol                       =   4.6183285552294E+12
(PID.TID 0000.0001) // =======================================================
(PID.TID 0000.0001) // End MONITOR dynamic field statistics
(PID.TID 0000.0001) // =======================================================
(PID.TID 0000.0001) // =======================================================
(PID.TID 0000.0001) // Begin OBCS MONITOR field statistics
(PID.TID 0000.0001) // =======================================================
(PID.TID 0000.0001) %MON obc_N_vVel_max               =   1.1290676574599E-07
(PID.TID 0000.0001) %MON obc_N_vVel_min               =   1.1290676574598E-07
(PID.TID 0000.0001) %MON obc_N_vVel_mean              =   1.1290676574598E-07
(PID.TID 0000.0001) %MON obc_N_vVel_sd                =   1.1512108063996E-14
(PID.TID 0000.0001) %MON obc_N_vVel_Int               =   7.4518465392349E+00
(PID.TID 0000.0001) // =======================================================
(PID.TID 0000.0001) // End OBCS MONITOR field statistics
(PID.TID 0000.0001) // =======================================================
 cg2d: Sum(rhs),rhsMax =   3.00423416037711E+00  4.53036099583036E+02
(PID.TID 0000.0001)      cg2d_init_res =   7.03922363830393E-06
(PID.TID 0000.0001)      cg2d_iters(min,last) =      -1      80
(PID.TID 0000.0001)      cg2d_last_res =   8.09235786684502E-12
(PID.TID 0000.0001) // =======================================================
(PID.TID 0000.0001) // Begin MONITOR dynamic field statistics
(PID.TID 0000.0001) // =======================================================
(PID.TID 0000.0001) %MON time_tsnumber                =                  1580
(PID.TID 0000.0001) %MON time_secondsf                =   1.5800000000000E+05
(PID.TID 0000.0001) %MON dynstat_eta_max              =   5.7999542282720E+00
(PID.TID 0000.0001) %MON dynstat_eta_min              =  -1.4163724911169E+01
(PID.TID 0000.0001) %MON dynstat_eta_mean             =  -2.5204194930581E+00
(PID.TID 0000.0001) %MON dynstat_eta_sd               =   4.9400263915761E+00
(PID.TID 0000.0001) %MON dynstat_eta_del2             =   1.9059871638737E-01
(PID.TID 0000.0001) %MON dynstat_uvel_max             =   1.6519005857203E-02
(PID.TID 0000.0001) %MON dynstat_uvel_min             =  -7.4335725628266E-02
(PID.TID 0000.0001) %MON dynstat_uvel_mean            =   7.7735736577479E-09
(PID.TID 0000.0001) %MON dynstat_uvel_sd              =   2.1797638218676E-03
(PID.TID 0000.0001) %MON dynstat_uvel_del2            =   3.4562570201777E-06
(PID.TID 0000.0001) %MON dynstat_vvel_max             =   3.9291049301583E-02
(PID.TID 0000.0001) %MON dynstat_vvel_min             =  -2.3125728109498E-02
(PID.TID 0000.0001) %MON dynstat_vvel_mean            =   1.7300391036985E-07
(PID.TID 0000.0001) %MON dynstat_vvel_sd              =   9.2685452990063E-04
(PID.TID 0000.0001) %MON dynstat_vvel_del2            =   2.3535783477572E-06
(PID.TID 0000.0001) %MON dynstat_wvel_max             =   2.6634640619165E-03
(PID.TID 0000.0001) %MON dynstat_wvel_min             =  -3.1572901463262E-03
(PID.TID 0000.0001) %MON dynstat_wvel_mean            =   5.6168788339407E-10
(PID.TID 0000.0001) %MON dynstat_wvel_sd              =   4.5355484193426E-05
(PID.TID 0000.0001) %MON dynstat_wvel_del2            =   1.6519256960455E-07
(PID.TID 0000.0001) %MON dynstat_theta_max            =   1.2000000000000E+00
(PID.TID 0000.0001) %MON dynstat_theta_min            =  -1.0000000000000E+00
(PID.TID 0000.0001) %MON dynstat_theta_mean           =   5.6469523677889E-01
(PID.TID 0000.0001) %MON dynstat_theta_sd             =   8.4874582311770E-01
(PID.TID 0000.0001) %MON dynstat_theta_del2           =   6.4761614339252E-06
(PID.TID 0000.0001) %MON dynstat_salt_max             =   3.4700000000000E+01
(PID.TID 0000.0001) %MON dynstat_salt_min             =   3.4000000000000E+01
(PID.TID 0000.0001) %MON dynstat_salt_mean            =   3.4497792208029E+01
(PID.TID 0000.0001) %MON dynstat_salt_sd              =   2.7003988673576E-01
(PID.TID 0000.0001) %MON dynstat_salt_del2            =   2.5676021540603E-06
(PID.TID 0000.0001) %MON advcfl_uvel_max              =   7.4335725628266E-03
(PID.TID 0000.0001) %MON advcfl_vvel_max              =   3.9291049301583E-03
(PID.TID 0000.0001) %MON advcfl_wvel_max              =   1.5786450731631E-02
(PID.TID 0000.0001) %MON advcfl_W_hf_max              =   1.5786450731631E-02
(PID.TID 0000.0001) %MON pe_b_mean                    =  -6.8086640650557E-01
(PID.TID 0000.0001) %MON ke_max                       =   2.6180968414636E-03
(PID.TID 0000.0001) %MON ke_mean                      =   2.7605434296580E-06
(PID.TID 0000.0001) %MON ke_vol                       =   4.6183286316533E+12
(PID.TID 0000.0001) // =======================================================
(PID.TID 0000.0001) // End MONITOR dynamic field statistics
(PID.TID 0000.0001) // =======================================================
(PID.TID 0000.0001) // =======================================================
(PID.TID 0000.0001) // Begin OBCS MONITOR field statistics
(PID.TID 0000.0001) // =======================================================
(PID.TID 0000.0001) %MON obc_N_vVel_max               =   1.1128247616191E-07
(PID.TID 0000.0001) %MON obc_N_vVel_min               =   1.1128247616191E-07
(PID.TID 0000.0001) %MON obc_N_vVel_mean              =   1.1128247616191E-07
(PID.TID 0000.0001) %MON obc_N_vVel_sd                =   2.5588172098324E-14
(PID.TID 0000.0001) %MON obc_N_vVel_Int               =   7.3446434266858E+00
(PID.TID 0000.0001) // =======================================================
(PID.TID 0000.0001) // End OBCS MONITOR field statistics
(PID.TID 0000.0001) // =======================================================
 cg2d: Sum(rhs),rhsMax =   3.00421893242483E+00  4.53036075208347E+02
(PID.TID 0000.0001)      cg2d_init_res =   7.04924245708858E-06
(PID.TID 0000.0001)      cg2d_iters(min,last) =      -1      80
(PID.TID 0000.0001)      cg2d_last_res =   8.10653832628281E-12
(PID.TID 0000.0001) // =======================================================
(PID.TID 0000.0001) // Begin MONITOR dynamic field statistics
(PID.TID 0000.0001) // =======================================================
(PID.TID 0000.0001) %MON time_tsnumber                =                  1581
(PID.TID 0000.0001) %MON time_secondsf                =   1.5810000000000E+05
(PID.TID 0000.0001) %MON dynstat_eta_max              =   5.7999579186458E+00
(PID.TID 0000.0001) %MON dynstat_eta_min              =  -1.4163721331135E+01
(PID.TID 0000.0001) %MON dynstat_eta_mean             =  -2.5204065818747E+00
(PID.TID 0000.0001) %MON dynstat_eta_sd               =   4.9400226566548E+00
(PID.TID 0000.0001) %MON dynstat_eta_del2             =   1.9059875481663E-01
(PID.TID 0000.0001) %MON dynstat_uvel_max             =   1.6550620898843E-02
(PID.TID 0000.0001) %MON dynstat_uvel_min             =  -7.4472282599640E-02
(PID.TID 0000.0001) %MON dynstat_uvel_mean            =   7.7941914972322E-09
(PID.TID 0000.0001) %MON dynstat_uvel_sd              =   2.1841375547972E-03
(PID.TID 0000.0001) %MON dynstat_uvel_del2            =   3.4638159068229E-06
(PID.TID 0000.0001) %MON dynstat_vvel_max             =   3.9333697468242E-02
(PID.TID 0000.0001) %MON dynstat_vvel_min             =  -2.3184848060065E-02
(PID.TID 0000.0001) %MON dynstat_vvel_mean            =   1.7131114115979E-07
(PID.TID 0000.0001) %MON dynstat_vvel_sd              =   9.2853121734476E-04
(PID.TID 0000.0001) %MON dynstat_vvel_del2            =   2.3573383958082E-06
(PID.TID 0000.0001) %MON dynstat_wvel_max             =   2.6670176394964E-03
(PID.TID 0000.0001) %MON dynstat_wvel_min             =  -3.1584422644259E-03
(PID.TID 0000.0001) %MON dynstat_wvel_mean            =   5.6267470102883E-10
(PID.TID 0000.0001) %MON dynstat_wvel_sd              =   4.5420245912418E-05
(PID.TID 0000.0001) %MON dynstat_wvel_del2            =   1.6538141690715E-07
(PID.TID 0000.0001) %MON dynstat_theta_max            =   1.2000000000000E+00
(PID.TID 0000.0001) %MON dynstat_theta_min            =  -1.0000000000000E+00
(PID.TID 0000.0001) %MON dynstat_theta_mean           =   5.6469379273058E-01
(PID.TID 0000.0001) %MON dynstat_theta_sd             =   8.4874520286089E-01
(PID.TID 0000.0001) %MON dynstat_theta_del2           =   6.4863122417112E-06
(PID.TID 0000.0001) %MON dynstat_salt_max             =   3.4700000000000E+01
(PID.TID 0000.0001) %MON dynstat_salt_min             =   3.4000000000000E+01
(PID.TID 0000.0001) %MON dynstat_salt_mean            =   3.4497791630479E+01
(PID.TID 0000.0001) %MON dynstat_salt_sd              =   2.7003965628902E-01
(PID.TID 0000.0001) %MON dynstat_salt_del2            =   2.5716405714112E-06
(PID.TID 0000.0001) %MON advcfl_uvel_max              =   7.4472282599640E-03
(PID.TID 0000.0001) %MON advcfl_vvel_max              =   3.9333697468242E-03
(PID.TID 0000.0001) %MON advcfl_wvel_max              =   1.5792211322129E-02
(PID.TID 0000.0001) %MON advcfl_W_hf_max              =   1.5792211322129E-02
(PID.TID 0000.0001) %MON pe_b_mean                    =  -6.8086250905789E-01
(PID.TID 0000.0001) %MON ke_max                       =   2.6282387972056E-03
(PID.TID 0000.0001) %MON ke_mean                      =   2.7714627086446E-06
(PID.TID 0000.0001) %MON ke_vol                       =   4.6183287082112E+12
(PID.TID 0000.0001) // =======================================================
(PID.TID 0000.0001) // End MONITOR dynamic field statistics
(PID.TID 0000.0001) // =======================================================
(PID.TID 0000.0001) // =======================================================
(PID.TID 0000.0001) // Begin OBCS MONITOR field statistics
(PID.TID 0000.0001) // =======================================================
(PID.TID 0000.0001) %MON obc_N_vVel_max               =   1.0961445603755E-07
(PID.TID 0000.0001) %MON obc_N_vVel_min               =   1.0961445603754E-07
(PID.TID 0000.0001) %MON obc_N_vVel_mean              =   1.0961445603754E-07
(PID.TID 0000.0001) %MON obc_N_vVel_sd                =   2.7085801480767E-14
(PID.TID 0000.0001) %MON obc_N_vVel_Int               =   7.2345540984779E+00
(PID.TID 0000.0001) // =======================================================
(PID.TID 0000.0001) // End OBCS MONITOR field statistics
(PID.TID 0000.0001) // =======================================================
 cg2d: Sum(rhs),rhsMax =   3.00420367772728E+00  4.53036050795510E+02
(PID.TID 0000.0001)      cg2d_init_res =   7.05926536120692E-06
(PID.TID 0000.0001)      cg2d_iters(min,last) =      -1      80
(PID.TID 0000.0001)      cg2d_last_res =   8.12078481354204E-12
(PID.TID 0000.0001) // =======================================================
(PID.TID 0000.0001) // Begin MONITOR dynamic field statistics
(PID.TID 0000.0001) // =======================================================
(PID.TID 0000.0001) %MON time_tsnumber                =                  1582
(PID.TID 0000.0001) %MON time_secondsf                =   1.5820000000000E+05
(PID.TID 0000.0001) %MON dynstat_eta_max              =   5.7999616213102E+00
(PID.TID 0000.0001) %MON dynstat_eta_min              =  -1.4163717745168E+01
(PID.TID 0000.0001) %MON dynstat_eta_mean             =  -2.5203936480424E+00
(PID.TID 0000.0001) %MON dynstat_eta_sd               =   4.9400189149369E+00
(PID.TID 0000.0001) %MON dynstat_eta_del2             =   1.9059879329745E-01
(PID.TID 0000.0001) %MON dynstat_uvel_max             =   1.6582257543909E-02
(PID.TID 0000.0001) %MON dynstat_uvel_min             =  -7.4608928470749E-02
(PID.TID 0000.0001) %MON dynstat_uvel_mean            =   7.8126994299859E-09
(PID.TID 0000.0001) %MON dynstat_uvel_sd              =   2.1885168093290E-03
(PID.TID 0000.0001) %MON dynstat_uvel_del2            =   3.4713879433850E-06
(PID.TID 0000.0001) %MON dynstat_vvel_max             =   3.9376336091584E-02
(PID.TID 0000.0001) %MON dynstat_vvel_min             =  -2.3244037270015E-02
(PID.TID 0000.0001) %MON dynstat_vvel_mean            =   1.6965502736229E-07
(PID.TID 0000.0001) %MON dynstat_vvel_sd              =   9.3021010507769E-04
(PID.TID 0000.0001) %MON dynstat_vvel_del2            =   2.3611020169694E-06
(PID.TID 0000.0001) %MON dynstat_wvel_max             =   2.6705695274283E-03
(PID.TID 0000.0001) %MON dynstat_wvel_min             =  -3.1595670204138E-03
(PID.TID 0000.0001) %MON dynstat_wvel_mean            =   5.6400941862348E-10
(PID.TID 0000.0001) %MON dynstat_wvel_sd              =   4.5484609776301E-05
(PID.TID 0000.0001) %MON dynstat_wvel_del2            =   1.6556903752426E-07
(PID.TID 0000.0001) %MON dynstat_theta_max            =   1.2000000000000E+00
(PID.TID 0000.0001) %MON dynstat_theta_min            =  -1.0000000000000E+00
(PID.TID 0000.0001) %MON dynstat_theta_mean           =   5.6469234636719E-01
(PID.TID 0000.0001) %MON dynstat_theta_sd             =   8.4874458183919E-01
(PID.TID 0000.0001) %MON dynstat_theta_del2           =   6.4964736482339E-06
(PID.TID 0000.0001) %MON dynstat_salt_max             =   3.4700000000000E+01
(PID.TID 0000.0001) %MON dynstat_salt_min             =   3.4000000000000E+01
(PID.TID 0000.0001) %MON dynstat_salt_mean            =   3.4497791052002E+01
(PID.TID 0000.0001) %MON dynstat_salt_sd              =   2.7003942558194E-01
(PID.TID 0000.0001) %MON dynstat_salt_del2            =   2.5756839554122E-06
(PID.TID 0000.0001) %MON advcfl_uvel_max              =   7.4608928470749E-03
(PID.TID 0000.0001) %MON advcfl_vvel_max              =   3.9376336091584E-03
(PID.TID 0000.0001) %MON advcfl_wvel_max              =   1.5797835102069E-02
(PID.TID 0000.0001) %MON advcfl_W_hf_max              =   1.5797835102069E-02
(PID.TID 0000.0001) %MON pe_b_mean                    =  -6.8085860496667E-01
(PID.TID 0000.0001) %MON ke_max                       =   2.6384039245058E-03
(PID.TID 0000.0001) %MON ke_mean                      =   2.7824174723979E-06
(PID.TID 0000.0001) %MON ke_vol                       =   4.6183287849037E+12
(PID.TID 0000.0001) // =======================================================
(PID.TID 0000.0001) // End MONITOR dynamic field statistics
(PID.TID 0000.0001) // =======================================================
(PID.TID 0000.0001) // =======================================================
(PID.TID 0000.0001) // Begin OBCS MONITOR field statistics
(PID.TID 0000.0001) // =======================================================
(PID.TID 0000.0001) %MON obc_N_vVel_max               =   1.0794948609026E-07
(PID.TID 0000.0001) %MON obc_N_vVel_min               =   1.0794948609026E-07
(PID.TID 0000.0001) %MON obc_N_vVel_mean              =   1.0794948609026E-07
(PID.TID 0000.0001) %MON obc_N_vVel_sd                =   1.6183380998215E-14
(PID.TID 0000.0001) %MON obc_N_vVel_Int               =   7.1246660819571E+00
(PID.TID 0000.0001) // =======================================================
(PID.TID 0000.0001) // End OBCS MONITOR field statistics
(PID.TID 0000.0001) // =======================================================
 cg2d: Sum(rhs),rhsMax =   3.00418839627896E+00  4.53036026352266E+02
(PID.TID 0000.0001)      cg2d_init_res =   7.06914245634474E-06
(PID.TID 0000.0001)      cg2d_iters(min,last) =      -1      80
(PID.TID 0000.0001)      cg2d_last_res =   8.13485903414274E-12
(PID.TID 0000.0001) // =======================================================
(PID.TID 0000.0001) // Begin MONITOR dynamic field statistics
(PID.TID 0000.0001) // =======================================================
(PID.TID 0000.0001) %MON time_tsnumber                =                  1583
(PID.TID 0000.0001) %MON time_secondsf                =   1.5830000000000E+05
(PID.TID 0000.0001) %MON dynstat_eta_max              =   5.7999653361018E+00
(PID.TID 0000.0001) %MON dynstat_eta_min              =  -1.4163714153469E+01
(PID.TID 0000.0001) %MON dynstat_eta_mean             =  -2.5203806915996E+00
(PID.TID 0000.0001) %MON dynstat_eta_sd               =   4.9400151664896E+00
(PID.TID 0000.0001) %MON dynstat_eta_del2             =   1.9059883183102E-01
(PID.TID 0000.0001) %MON dynstat_uvel_max             =   1.6613917777702E-02
(PID.TID 0000.0001) %MON dynstat_uvel_min             =  -7.4745663187063E-02
(PID.TID 0000.0001) %MON dynstat_uvel_mean            =   7.8291928551629E-09
(PID.TID 0000.0001) %MON dynstat_uvel_sd              =   2.1929015817842E-03
(PID.TID 0000.0001) %MON dynstat_uvel_del2            =   3.4789731419245E-06
(PID.TID 0000.0001) %MON dynstat_vvel_max             =   3.9418965101214E-02
(PID.TID 0000.0001) %MON dynstat_vvel_min             =  -2.3303295435909E-02
(PID.TID 0000.0001) %MON dynstat_vvel_mean            =   1.6808372562558E-07
(PID.TID 0000.0001) %MON dynstat_vvel_sd              =   9.3189120764328E-04
(PID.TID 0000.0001) %MON dynstat_vvel_del2            =   2.3648693065825E-06
(PID.TID 0000.0001) %MON dynstat_wvel_max             =   2.6741197001252E-03
(PID.TID 0000.0001) %MON dynstat_wvel_min             =  -3.1606624166656E-03
(PID.TID 0000.0001) %MON dynstat_wvel_mean            =   5.6567667376004E-10
(PID.TID 0000.0001) %MON dynstat_wvel_sd              =   4.5548594221133E-05
(PID.TID 0000.0001) %MON dynstat_wvel_del2            =   1.6575538163370E-07
(PID.TID 0000.0001) %MON dynstat_theta_max            =   1.2000000000000E+00
(PID.TID 0000.0001) %MON dynstat_theta_min            =  -1.0000000000000E+00
(PID.TID 0000.0001) %MON dynstat_theta_mean           =   5.6469089768655E-01
(PID.TID 0000.0001) %MON dynstat_theta_sd             =   8.4874396005559E-01
(PID.TID 0000.0001) %MON dynstat_theta_del2           =   6.5066463695715E-06
(PID.TID 0000.0001) %MON dynstat_salt_max             =   3.4700000000000E+01
(PID.TID 0000.0001) %MON dynstat_salt_min             =   3.4000000000000E+01
(PID.TID 0000.0001) %MON dynstat_salt_mean            =   3.4497790472600E+01
(PID.TID 0000.0001) %MON dynstat_salt_sd              =   2.7003919461537E-01
(PID.TID 0000.0001) %MON dynstat_salt_del2            =   2.5797311697503E-06
(PID.TID 0000.0001) %MON advcfl_uvel_max              =   7.4745663187063E-03
(PID.TID 0000.0001) %MON advcfl_vvel_max              =   3.9418965101214E-03
(PID.TID 0000.0001) %MON advcfl_wvel_max              =   1.5803312083328E-02
(PID.TID 0000.0001) %MON advcfl_W_hf_max              =   1.5803312083328E-02
(PID.TID 0000.0001) %MON pe_b_mean                    =  -6.8085469424793E-01
(PID.TID 0000.0001) %MON ke_max                       =   2.6485921548843E-03
(PID.TID 0000.0001) %MON ke_mean                      =   2.7934078088228E-06
(PID.TID 0000.0001) %MON ke_vol                       =   4.6183288617306E+12
(PID.TID 0000.0001) // =======================================================
(PID.TID 0000.0001) // End MONITOR dynamic field statistics
(PID.TID 0000.0001) // =======================================================
(PID.TID 0000.0001) // =======================================================
(PID.TID 0000.0001) // Begin OBCS MONITOR field statistics
(PID.TID 0000.0001) // =======================================================
(PID.TID 0000.0001) %MON obc_N_vVel_max               =   1.0633380284613E-07
(PID.TID 0000.0001) %MON obc_N_vVel_min               =   1.0633380284613E-07
(PID.TID 0000.0001) %MON obc_N_vVel_mean              =   1.0633380284613E-07
(PID.TID 0000.0001) %MON obc_N_vVel_sd                =   2.0485946440855E-14
(PID.TID 0000.0001) %MON obc_N_vVel_Int               =   7.0180309878443E+00
(PID.TID 0000.0001) // =======================================================
(PID.TID 0000.0001) // End OBCS MONITOR field statistics
(PID.TID 0000.0001) // =======================================================
 cg2d: Sum(rhs),rhsMax =   3.00417308813327E+00  4.53036001886466E+02
(PID.TID 0000.0001)      cg2d_init_res =   7.07910415877280E-06
(PID.TID 0000.0001)      cg2d_iters(min,last) =      -1      80
(PID.TID 0000.0001)      cg2d_last_res =   8.14913678533444E-12
(PID.TID 0000.0001) // =======================================================
(PID.TID 0000.0001) // Begin MONITOR dynamic field statistics
(PID.TID 0000.0001) // =======================================================
(PID.TID 0000.0001) %MON time_tsnumber                =                  1584
(PID.TID 0000.0001) %MON time_secondsf                =   1.5840000000000E+05
(PID.TID 0000.0001) %MON dynstat_eta_max              =   5.7999690627919E+00
(PID.TID 0000.0001) %MON dynstat_eta_min              =  -1.4163710556306E+01
(PID.TID 0000.0001) %MON dynstat_eta_mean             =  -2.5203677126348E+00
(PID.TID 0000.0001) %MON dynstat_eta_sd               =   4.9400114113698E+00
(PID.TID 0000.0001) %MON dynstat_eta_del2             =   1.9059887041660E-01
(PID.TID 0000.0001) %MON dynstat_uvel_max             =   1.6645600771863E-02
(PID.TID 0000.0001) %MON dynstat_uvel_min             =  -7.4882486764327E-02
(PID.TID 0000.0001) %MON dynstat_uvel_mean            =   7.8436681161033E-09
(PID.TID 0000.0001) %MON dynstat_uvel_sd              =   2.1972918666728E-03
(PID.TID 0000.0001) %MON dynstat_uvel_del2            =   3.4865715072307E-06
(PID.TID 0000.0001) %MON dynstat_vvel_max             =   3.9461584425069E-02
(PID.TID 0000.0001) %MON dynstat_vvel_min             =  -2.3362622274046E-02
(PID.TID 0000.0001) %MON dynstat_vvel_mean            =   1.6664283299665E-07
(PID.TID 0000.0001) %MON dynstat_vvel_sd              =   9.3357454098359E-04
(PID.TID 0000.0001) %MON dynstat_vvel_del2            =   2.3686402892131E-06
(PID.TID 0000.0001) %MON dynstat_wvel_max             =   2.6776681320901E-03
(PID.TID 0000.0001) %MON dynstat_wvel_min             =  -3.1617288415448E-03
(PID.TID 0000.0001) %MON dynstat_wvel_mean            =   5.6765522095209E-10
(PID.TID 0000.0001) %MON dynstat_wvel_sd              =   4.5612237602352E-05
(PID.TID 0000.0001) %MON dynstat_wvel_del2            =   1.6594052913453E-07
(PID.TID 0000.0001) %MON dynstat_theta_max            =   1.2000000000000E+00
(PID.TID 0000.0001) %MON dynstat_theta_min            =  -1.0000000000000E+00
(PID.TID 0000.0001) %MON dynstat_theta_mean           =   5.6468944668669E-01
(PID.TID 0000.0001) %MON dynstat_theta_sd             =   8.4874333751394E-01
(PID.TID 0000.0001) %MON dynstat_theta_del2           =   6.5168328008677E-06
(PID.TID 0000.0001) %MON dynstat_salt_max             =   3.4700000000000E+01
(PID.TID 0000.0001) %MON dynstat_salt_min             =   3.4000000000000E+01
(PID.TID 0000.0001) %MON dynstat_salt_mean            =   3.4497789892269E+01
(PID.TID 0000.0001) %MON dynstat_salt_sd              =   2.7003896339001E-01
(PID.TID 0000.0001) %MON dynstat_salt_del2            =   2.5837821856833E-06
(PID.TID 0000.0001) %MON advcfl_uvel_max              =   7.4882486764327E-03
(PID.TID 0000.0001) %MON advcfl_vvel_max              =   3.9461584425069E-03
(PID.TID 0000.0001) %MON advcfl_wvel_max              =   1.5808644207724E-02
(PID.TID 0000.0001) %MON advcfl_W_hf_max              =   1.5808644207724E-02
(PID.TID 0000.0001) %MON pe_b_mean                    =  -6.8085077692736E-01
(PID.TID 0000.0001) %MON ke_max                       =   2.6588034193463E-03
(PID.TID 0000.0001) %MON ke_mean                      =   2.8044338033621E-06
(PID.TID 0000.0001) %MON ke_vol                       =   4.6183289386919E+12
(PID.TID 0000.0001) // =======================================================
(PID.TID 0000.0001) // End MONITOR dynamic field statistics
(PID.TID 0000.0001) // =======================================================
(PID.TID 0000.0001) // =======================================================
(PID.TID 0000.0001) // Begin OBCS MONITOR field statistics
(PID.TID 0000.0001) // =======================================================
(PID.TID 0000.0001) %MON obc_N_vVel_max               =   1.0481205461382E-07
(PID.TID 0000.0001) %MON obc_N_vVel_min               =   1.0481205461382E-07
(PID.TID 0000.0001) %MON obc_N_vVel_mean              =   1.0481205461382E-07
(PID.TID 0000.0001) %MON obc_N_vVel_sd                =   4.5288390936029E-15
(PID.TID 0000.0001) %MON obc_N_vVel_Int               =   6.9175956045119E+00
(PID.TID 0000.0001) // =======================================================
(PID.TID 0000.0001) // End OBCS MONITOR field statistics
(PID.TID 0000.0001) // =======================================================
 cg2d: Sum(rhs),rhsMax =   3.00415775339959E+00  4.53035977405943E+02
(PID.TID 0000.0001)      cg2d_init_res =   7.08900367737620E-06
(PID.TID 0000.0001)      cg2d_iters(min,last) =      -1      80
(PID.TID 0000.0001)      cg2d_last_res =   8.16338321625065E-12
(PID.TID 0000.0001) // =======================================================
(PID.TID 0000.0001) // Begin MONITOR dynamic field statistics
(PID.TID 0000.0001) // =======================================================
(PID.TID 0000.0001) %MON time_tsnumber                =                  1585
(PID.TID 0000.0001) %MON time_secondsf                =   1.5850000000000E+05
(PID.TID 0000.0001) %MON dynstat_eta_max              =   5.7999728010542E+00
(PID.TID 0000.0001) %MON dynstat_eta_min              =  -1.4163706954041E+01
(PID.TID 0000.0001) %MON dynstat_eta_mean             =  -2.5203547112834E+00
(PID.TID 0000.0001) %MON dynstat_eta_sd               =   4.9400076496573E+00
(PID.TID 0000.0001) %MON dynstat_eta_del2             =   1.9059890905432E-01
(PID.TID 0000.0001) %MON dynstat_uvel_max             =   1.6677306244345E-02
(PID.TID 0000.0001) %MON dynstat_uvel_min             =  -7.5019399218657E-02
(PID.TID 0000.0001) %MON dynstat_uvel_mean            =   7.8562663349934E-09
(PID.TID 0000.0001) %MON dynstat_uvel_sd              =   2.2016876585797E-03
(PID.TID 0000.0001) %MON dynstat_uvel_del2            =   3.4941830475065E-06
(PID.TID 0000.0001) %MON dynstat_vvel_max             =   3.9504193991103E-02
(PID.TID 0000.0001) %MON dynstat_vvel_min             =  -2.3422017525611E-02
(PID.TID 0000.0001) %MON dynstat_vvel_mean            =   1.6537455062890E-07
(PID.TID 0000.0001) %MON dynstat_vvel_sd              =   9.3526012543584E-04
(PID.TID 0000.0001) %MON dynstat_vvel_del2            =   2.3724150123807E-06
(PID.TID 0000.0001) %MON dynstat_wvel_max             =   2.6812147980858E-03
(PID.TID 0000.0001) %MON dynstat_wvel_min             =  -3.1627664813667E-03
(PID.TID 0000.0001) %MON dynstat_wvel_mean            =   5.6991435928396E-10
(PID.TID 0000.0001) %MON dynstat_wvel_sd              =   4.5675594169177E-05
(PID.TID 0000.0001) %MON dynstat_wvel_del2            =   1.6612462293623E-07
(PID.TID 0000.0001) %MON dynstat_theta_max            =   1.2000000000000E+00
(PID.TID 0000.0001) %MON dynstat_theta_min            =  -1.0000000000000E+00
(PID.TID 0000.0001) %MON dynstat_theta_mean           =   5.6468799336574E-01
(PID.TID 0000.0001) %MON dynstat_theta_sd             =   8.4874271421267E-01
(PID.TID 0000.0001) %MON dynstat_theta_del2           =   6.5270292232009E-06
(PID.TID 0000.0001) %MON dynstat_salt_max             =   3.4700000000000E+01
(PID.TID 0000.0001) %MON dynstat_salt_min             =   3.4000000000000E+01
(PID.TID 0000.0001) %MON dynstat_salt_mean            =   3.4497789311011E+01
(PID.TID 0000.0001) %MON dynstat_salt_sd              =   2.7003873190650E-01
(PID.TID 0000.0001) %MON dynstat_salt_del2            =   2.5878372084836E-06
(PID.TID 0000.0001) %MON advcfl_uvel_max              =   7.5019399218657E-03
(PID.TID 0000.0001) %MON advcfl_vvel_max              =   3.9504193991103E-03
(PID.TID 0000.0001) %MON advcfl_wvel_max              =   1.5813832406833E-02
(PID.TID 0000.0001) %MON advcfl_W_hf_max              =   1.5813832406833E-02
(PID.TID 0000.0001) %MON pe_b_mean                    =  -6.8084685303944E-01
(PID.TID 0000.0001) %MON ke_max                       =   2.6690376485073E-03
(PID.TID 0000.0001) %MON ke_mean                      =   2.8154955458476E-06
(PID.TID 0000.0001) %MON ke_vol                       =   4.6183290157869E+12
(PID.TID 0000.0001) // =======================================================
(PID.TID 0000.0001) // End MONITOR dynamic field statistics
(PID.TID 0000.0001) // =======================================================
(PID.TID 0000.0001) // =======================================================
(PID.TID 0000.0001) // Begin OBCS MONITOR field statistics
(PID.TID 0000.0001) // =======================================================
(PID.TID 0000.0001) %MON obc_N_vVel_max               =   1.0342626240516E-07
(PID.TID 0000.0001) %MON obc_N_vVel_min               =   1.0342626240516E-07
(PID.TID 0000.0001) %MON obc_N_vVel_mean              =   1.0342626240516E-07
(PID.TID 0000.0001) %MON obc_N_vVel_sd                =  -5.5220263365471E-29
(PID.TID 0000.0001) %MON obc_N_vVel_Int               =   6.8261333187405E+00
(PID.TID 0000.0001) // =======================================================
(PID.TID 0000.0001) // End OBCS MONITOR field statistics
(PID.TID 0000.0001) // =======================================================
 cg2d: Sum(rhs),rhsMax =   3.00414239223943E+00  4.53035952918293E+02
(PID.TID 0000.0001)      cg2d_init_res =   7.09892682217186E-06
(PID.TID 0000.0001)      cg2d_iters(min,last) =      -1      80
(PID.TID 0000.0001)      cg2d_last_res =   8.17767281309945E-12
(PID.TID 0000.0001) // =======================================================
(PID.TID 0000.0001) // Begin MONITOR dynamic field statistics
(PID.TID 0000.0001) // =======================================================
(PID.TID 0000.0001) %MON time_tsnumber                =                  1586
(PID.TID 0000.0001) %MON time_secondsf                =   1.5860000000000E+05
(PID.TID 0000.0001) %MON dynstat_eta_max              =   5.7999765504992E+00
(PID.TID 0000.0001) %MON dynstat_eta_min              =  -1.4163703347090E+01
(PID.TID 0000.0001) %MON dynstat_eta_mean             =  -2.5203416877230E+00
(PID.TID 0000.0001) %MON dynstat_eta_sd               =   4.9400038814506E+00
(PID.TID 0000.0001) %MON dynstat_eta_del2             =   1.9059894774487E-01
(PID.TID 0000.0001) %MON dynstat_uvel_max             =   1.6709033757446E-02
(PID.TID 0000.0001) %MON dynstat_uvel_min             =  -7.5156400550885E-02
(PID.TID 0000.0001) %MON dynstat_uvel_mean            =   7.8671469647801E-09
(PID.TID 0000.0001) %MON dynstat_uvel_sd              =   2.2060889519482E-03
(PID.TID 0000.0001) %MON dynstat_uvel_del2            =   3.5018077735617E-06
(PID.TID 0000.0001) %MON dynstat_vvel_max             =   3.9546793724698E-02
(PID.TID 0000.0001) %MON dynstat_vvel_min             =  -2.3481480920186E-02
(PID.TID 0000.0001) %MON dynstat_vvel_mean            =   1.6431664778593E-07
(PID.TID 0000.0001) %MON dynstat_vvel_sd              =   9.3694798489613E-04
(PID.TID 0000.0001) %MON dynstat_vvel_del2            =   2.3761935349545E-06
(PID.TID 0000.0001) %MON dynstat_wvel_max             =   2.6847596727621E-03
(PID.TID 0000.0001) %MON dynstat_wvel_min             =  -3.1637757034809E-03
(PID.TID 0000.0001) %MON dynstat_wvel_mean            =   5.7241807354570E-10
(PID.TID 0000.0001) %MON dynstat_wvel_sd              =   4.5738731391850E-05
(PID.TID 0000.0001) %MON dynstat_wvel_del2            =   1.6630787104319E-07
(PID.TID 0000.0001) %MON dynstat_theta_max            =   1.2000000000000E+00
(PID.TID 0000.0001) %MON dynstat_theta_min            =  -1.0000000000000E+00
(PID.TID 0000.0001) %MON dynstat_theta_mean           =   5.6468653772190E-01
(PID.TID 0000.0001) %MON dynstat_theta_sd             =   8.4874209015327E-01
(PID.TID 0000.0001) %MON dynstat_theta_del2           =   6.5372355640191E-06
(PID.TID 0000.0001) %MON dynstat_salt_max             =   3.4700000000000E+01
(PID.TID 0000.0001) %MON dynstat_salt_min             =   3.4000000000000E+01
(PID.TID 0000.0001) %MON dynstat_salt_mean            =   3.4497788728824E+01
(PID.TID 0000.0001) %MON dynstat_salt_sd              =   2.7003850016527E-01
(PID.TID 0000.0001) %MON dynstat_salt_del2            =   2.5918961589769E-06
(PID.TID 0000.0001) %MON advcfl_uvel_max              =   7.5156400550885E-03
(PID.TID 0000.0001) %MON advcfl_vvel_max              =   3.9546793724698E-03
(PID.TID 0000.0001) %MON advcfl_wvel_max              =   1.5818878517405E-02
(PID.TID 0000.0001) %MON advcfl_W_hf_max              =   1.5818878517405E-02
(PID.TID 0000.0001) %MON pe_b_mean                    =  -6.8084292262641E-01
(PID.TID 0000.0001) %MON ke_max                       =   2.6792947721532E-03
(PID.TID 0000.0001) %MON ke_mean                      =   2.8265931292868E-06
(PID.TID 0000.0001) %MON ke_vol                       =   4.6183290930150E+12
(PID.TID 0000.0001) // =======================================================
(PID.TID 0000.0001) // End MONITOR dynamic field statistics
(PID.TID 0000.0001) // =======================================================
(PID.TID 0000.0001) // =======================================================
(PID.TID 0000.0001) // Begin OBCS MONITOR field statistics
(PID.TID 0000.0001) // =======================================================
(PID.TID 0000.0001) %MON obc_N_vVel_max               =   1.0221488398870E-07
(PID.TID 0000.0001) %MON obc_N_vVel_min               =   1.0221488398870E-07
(PID.TID 0000.0001) %MON obc_N_vVel_mean              =   1.0221488398870E-07
(PID.TID 0000.0001) %MON obc_N_vVel_sd                =  -9.7818752247405E-29
(PID.TID 0000.0001) %MON obc_N_vVel_Int               =   6.7461823432541E+00
(PID.TID 0000.0001) // =======================================================
(PID.TID 0000.0001) // End OBCS MONITOR field statistics
(PID.TID 0000.0001) // =======================================================
 cg2d: Sum(rhs),rhsMax =   3.00412700486214E+00  4.53035928430729E+02
(PID.TID 0000.0001)      cg2d_init_res =   7.10881515549477E-06
(PID.TID 0000.0001)      cg2d_iters(min,last) =      -1      80
(PID.TID 0000.0001)      cg2d_last_res =   8.19194164723424E-12
(PID.TID 0000.0001) // =======================================================
(PID.TID 0000.0001) // Begin MONITOR dynamic field statistics
(PID.TID 0000.0001) // =======================================================
(PID.TID 0000.0001) %MON time_tsnumber                =                  1587
(PID.TID 0000.0001) %MON time_secondsf                =   1.5870000000000E+05
(PID.TID 0000.0001) %MON dynstat_eta_max              =   5.7999803106587E+00
(PID.TID 0000.0001) %MON dynstat_eta_min              =  -1.4163699735940E+01
(PID.TID 0000.0001) %MON dynstat_eta_mean             =  -2.5203286421695E+00
(PID.TID 0000.0001) %MON dynstat_eta_sd               =   4.9400001068508E+00
(PID.TID 0000.0001) %MON dynstat_eta_del2             =   1.9059898648862E-01
(PID.TID 0000.0001) %MON dynstat_uvel_max             =   1.6740783151117E-02
(PID.TID 0000.0001) %MON dynstat_uvel_min             =  -7.5293490751633E-02
(PID.TID 0000.0001) %MON dynstat_uvel_mean            =   7.8765069443542E-09
(PID.TID 0000.0001) %MON dynstat_uvel_sd              =   2.2104957414083E-03
(PID.TID 0000.0001) %MON dynstat_uvel_del2            =   3.5094456923002E-06
(PID.TID 0000.0001) %MON dynstat_vvel_max             =   3.9589383546552E-02
(PID.TID 0000.0001) %MON dynstat_vvel_min             =  -2.3541012186818E-02
(PID.TID 0000.0001) %MON dynstat_vvel_mean            =   1.6350163876186E-07
(PID.TID 0000.0001) %MON dynstat_vvel_sd              =   9.3863814650641E-04
(PID.TID 0000.0001) %MON dynstat_vvel_del2            =   2.3799759366918E-06
(PID.TID 0000.0001) %MON dynstat_wvel_max             =   2.6883027309992E-03
(PID.TID 0000.0001) %MON dynstat_wvel_min             =  -3.1647564845245E-03
(PID.TID 0000.0001) %MON dynstat_wvel_mean            =   5.7512523884212E-10
(PID.TID 0000.0001) %MON dynstat_wvel_sd              =   4.5801726149012E-05
(PID.TID 0000.0001) %MON dynstat_wvel_del2            =   1.6649052243264E-07
(PID.TID 0000.0001) %MON dynstat_theta_max            =   1.2000000000000E+00
(PID.TID 0000.0001) %MON dynstat_theta_min            =  -1.0000000000000E+00
(PID.TID 0000.0001) %MON dynstat_theta_mean           =   5.6468507975352E-01
(PID.TID 0000.0001) %MON dynstat_theta_sd             =   8.4874146533600E-01
(PID.TID 0000.0001) %MON dynstat_theta_del2           =   6.5474517438541E-06
(PID.TID 0000.0001) %MON dynstat_salt_max             =   3.4700000000000E+01
(PID.TID 0000.0001) %MON dynstat_salt_min             =   3.4000000000000E+01
(PID.TID 0000.0001) %MON dynstat_salt_mean            =   3.4497788145707E+01
(PID.TID 0000.0001) %MON dynstat_salt_sd              =   2.7003826816712E-01
(PID.TID 0000.0001) %MON dynstat_salt_del2            =   2.5959596885701E-06
(PID.TID 0000.0001) %MON advcfl_uvel_max              =   7.5293490751633E-03
(PID.TID 0000.0001) %MON advcfl_vvel_max              =   3.9589383546552E-03
(PID.TID 0000.0001) %MON advcfl_wvel_max              =   1.5823782422623E-02
(PID.TID 0000.0001) %MON advcfl_W_hf_max              =   1.5823782422623E-02
(PID.TID 0000.0001) %MON pe_b_mean                    =  -6.8083898573714E-01
(PID.TID 0000.0001) %MON ke_max                       =   2.6895747193384E-03
(PID.TID 0000.0001) %MON ke_mean                      =   2.8377266503070E-06
(PID.TID 0000.0001) %MON ke_vol                       =   4.6183291703749E+12
(PID.TID 0000.0001) // =======================================================
(PID.TID 0000.0001) // End MONITOR dynamic field statistics
(PID.TID 0000.0001) // =======================================================
(PID.TID 0000.0001) // =======================================================
(PID.TID 0000.0001) // Begin OBCS MONITOR field statistics
(PID.TID 0000.0001) // =======================================================
(PID.TID 0000.0001) %MON obc_N_vVel_max               =   1.0121194617250E-07
(PID.TID 0000.0001) %MON obc_N_vVel_min               =   1.0121194617250E-07
(PID.TID 0000.0001) %MON obc_N_vVel_mean              =   1.0121194617250E-07
(PID.TID 0000.0001) %MON obc_N_vVel_sd                =   1.8503124948665E-14
(PID.TID 0000.0001) %MON obc_N_vVel_Int               =   6.6799884473851E+00
(PID.TID 0000.0001) // =======================================================
(PID.TID 0000.0001) // End OBCS MONITOR field statistics
(PID.TID 0000.0001) // =======================================================
 cg2d: Sum(rhs),rhsMax =   3.00411159151899E+00  4.53035903949906E+02
(PID.TID 0000.0001)      cg2d_init_res =   7.11873789288768E-06
(PID.TID 0000.0001)      cg2d_iters(min,last) =      -1      80
(PID.TID 0000.0001)      cg2d_last_res =   8.20622195451848E-12
(PID.TID 0000.0001) // =======================================================
(PID.TID 0000.0001) // Begin MONITOR dynamic field statistics
(PID.TID 0000.0001) // =======================================================
(PID.TID 0000.0001) %MON time_tsnumber                =                  1588
(PID.TID 0000.0001) %MON time_secondsf                =   1.5880000000000E+05
(PID.TID 0000.0001) %MON dynstat_eta_max              =   5.7999840810193E+00
(PID.TID 0000.0001) %MON dynstat_eta_min              =  -1.4163696121113E+01
(PID.TID 0000.0001) %MON dynstat_eta_mean             =  -2.5203155748707E+00
(PID.TID 0000.0001) %MON dynstat_eta_sd               =   4.9399963259697E+00
(PID.TID 0000.0001) %MON dynstat_eta_del2             =   1.9059902528631E-01
(PID.TID 0000.0001) %MON dynstat_uvel_max             =   1.6772554231606E-02
(PID.TID 0000.0001) %MON dynstat_uvel_min             =  -7.5430669806124E-02
(PID.TID 0000.0001) %MON dynstat_uvel_mean            =   7.8845682487270E-09
(PID.TID 0000.0001) %MON dynstat_uvel_sd              =   2.2149080215623E-03
(PID.TID 0000.0001) %MON dynstat_uvel_del2            =   3.5170968101924E-06
(PID.TID 0000.0001) %MON dynstat_vvel_max             =   3.9631963376440E-02
(PID.TID 0000.0001) %MON dynstat_vvel_min             =  -2.3600611053745E-02
(PID.TID 0000.0001) %MON dynstat_vvel_mean            =   1.6295605891634E-07
(PID.TID 0000.0001) %MON dynstat_vvel_sd              =   9.4033063892752E-04
(PID.TID 0000.0001) %MON dynstat_vvel_del2            =   2.3837623037673E-06
(PID.TID 0000.0001) %MON dynstat_wvel_max             =   2.6918439476657E-03
(PID.TID 0000.0001) %MON dynstat_wvel_min             =  -3.1657088055632E-03
(PID.TID 0000.0001) %MON dynstat_wvel_mean            =   5.7798981062945E-10
(PID.TID 0000.0001) %MON dynstat_wvel_sd              =   4.5864661411826E-05
(PID.TID 0000.0001) %MON dynstat_wvel_del2            =   1.6667286066047E-07
(PID.TID 0000.0001) %MON dynstat_theta_max            =   1.2000000000000E+00
(PID.TID 0000.0001) %MON dynstat_theta_min            =  -1.0000000000000E+00
(PID.TID 0000.0001) %MON dynstat_theta_mean           =   5.6468361945909E-01
(PID.TID 0000.0001) %MON dynstat_theta_sd             =   8.4874083976066E-01
(PID.TID 0000.0001) %MON dynstat_theta_del2           =   6.5576775745853E-06
(PID.TID 0000.0001) %MON dynstat_salt_max             =   3.4700000000000E+01
(PID.TID 0000.0001) %MON dynstat_salt_min             =   3.4000000000000E+01
(PID.TID 0000.0001) %MON dynstat_salt_mean            =   3.4497787561660E+01
(PID.TID 0000.0001) %MON dynstat_salt_sd              =   2.7003803591286E-01
(PID.TID 0000.0001) %MON dynstat_salt_del2            =   2.6000287311431E-06
(PID.TID 0000.0001) %MON advcfl_uvel_max              =   7.5430669806124E-03
(PID.TID 0000.0001) %MON advcfl_vvel_max              =   3.9631963376440E-03
(PID.TID 0000.0001) %MON advcfl_wvel_max              =   1.5828544027816E-02
(PID.TID 0000.0001) %MON advcfl_W_hf_max              =   1.5828544027816E-02
(PID.TID 0000.0001) %MON pe_b_mean                    =  -6.8083504242576E-01
(PID.TID 0000.0001) %MON ke_max                       =   2.6998774184783E-03
(PID.TID 0000.0001) %MON ke_mean                      =   2.8488962070984E-06
(PID.TID 0000.0001) %MON ke_vol                       =   4.6183292478655E+12
(PID.TID 0000.0001) // =======================================================
(PID.TID 0000.0001) // End MONITOR dynamic field statistics
(PID.TID 0000.0001) // =======================================================
(PID.TID 0000.0001) // =======================================================
(PID.TID 0000.0001) // Begin OBCS MONITOR field statistics
(PID.TID 0000.0001) // =======================================================
(PID.TID 0000.0001) %MON obc_N_vVel_max               =   1.0044630488980E-07
(PID.TID 0000.0001) %MON obc_N_vVel_min               =   1.0044630488980E-07
(PID.TID 0000.0001) %MON obc_N_vVel_mean              =   1.0044630488980E-07
(PID.TID 0000.0001) %MON obc_N_vVel_sd                =   2.9697583942757E-14
(PID.TID 0000.0001) %MON obc_N_vVel_Int               =   6.6294561227265E+00
(PID.TID 0000.0001) // =======================================================
(PID.TID 0000.0001) // End OBCS MONITOR field statistics
(PID.TID 0000.0001) // =======================================================
 cg2d: Sum(rhs),rhsMax =   3.00409615249582E+00  4.53035879481810E+02
(PID.TID 0000.0001)      cg2d_init_res =   7.12873737813012E-06
(PID.TID 0000.0001)      cg2d_iters(min,last) =      -1      80
(PID.TID 0000.0001)      cg2d_last_res =   8.22052385639102E-12
(PID.TID 0000.0001) // =======================================================
(PID.TID 0000.0001) // Begin MONITOR dynamic field statistics
(PID.TID 0000.0001) // =======================================================
(PID.TID 0000.0001) %MON time_tsnumber                =                  1589
(PID.TID 0000.0001) %MON time_secondsf                =   1.5890000000000E+05
(PID.TID 0000.0001) %MON dynstat_eta_max              =   5.7999878610259E+00
(PID.TID 0000.0001) %MON dynstat_eta_min              =  -1.4163692503169E+01
(PID.TID 0000.0001) %MON dynstat_eta_mean             =  -2.5203024860998E+00
(PID.TID 0000.0001) %MON dynstat_eta_sd               =   4.9399925389268E+00
(PID.TID 0000.0001) %MON dynstat_eta_del2             =   1.9059906413901E-01
(PID.TID 0000.0001) %MON dynstat_uvel_max             =   1.6804346818183E-02
(PID.TID 0000.0001) %MON dynstat_uvel_min             =  -7.5567937694277E-02
(PID.TID 0000.0001) %MON dynstat_uvel_mean            =   7.8915868627805E-09
(PID.TID 0000.0001) %MON dynstat_uvel_sd              =   2.2193257870125E-03
(PID.TID 0000.0001) %MON dynstat_uvel_del2            =   3.5247611333448E-06
(PID.TID 0000.0001) %MON dynstat_vvel_max             =   3.9674533131818E-02
(PID.TID 0000.0001) %MON dynstat_vvel_min             =  -2.3660277250841E-02
(PID.TID 0000.0001) %MON dynstat_vvel_mean            =   1.6269990714760E-07
(PID.TID 0000.0001) %MON dynstat_vvel_sd              =   9.4202549120420E-04
(PID.TID 0000.0001) %MON dynstat_vvel_del2            =   2.3875527231700E-06
(PID.TID 0000.0001) %MON dynstat_wvel_max             =   2.6953832977603E-03
(PID.TID 0000.0001) %MON dynstat_wvel_min             =  -3.1666326497569E-03
(PID.TID 0000.0001) %MON dynstat_wvel_mean            =   5.8096230920350E-10
(PID.TID 0000.0001) %MON dynstat_wvel_sd              =   4.5927622279849E-05
(PID.TID 0000.0001) %MON dynstat_wvel_del2            =   1.6685518724670E-07
(PID.TID 0000.0001) %MON dynstat_theta_max            =   1.2000000000000E+00
(PID.TID 0000.0001) %MON dynstat_theta_min            =  -1.0000000000000E+00
(PID.TID 0000.0001) %MON dynstat_theta_mean           =   5.6468215683714E-01
(PID.TID 0000.0001) %MON dynstat_theta_sd             =   8.4874021342626E-01
(PID.TID 0000.0001) %MON dynstat_theta_del2           =   6.5679121251652E-06
(PID.TID 0000.0001) %MON dynstat_salt_max             =   3.4700000000000E+01
(PID.TID 0000.0001) %MON dynstat_salt_min             =   3.4000000000000E+01
(PID.TID 0000.0001) %MON dynstat_salt_mean            =   3.4497786976683E+01
(PID.TID 0000.0001) %MON dynstat_salt_sd              =   2.7003780340115E-01
(PID.TID 0000.0001) %MON dynstat_salt_del2            =   2.6041014554650E-06
(PID.TID 0000.0001) %MON advcfl_uvel_max              =   7.5567937694277E-03
(PID.TID 0000.0001) %MON advcfl_vvel_max              =   3.9674533131818E-03
(PID.TID 0000.0001) %MON advcfl_wvel_max              =   1.5833163248785E-02
(PID.TID 0000.0001) %MON advcfl_W_hf_max              =   1.5833163248785E-02
(PID.TID 0000.0001) %MON pe_b_mean                    =  -6.8083109275018E-01
(PID.TID 0000.0001) %MON ke_max                       =   2.7102027973947E-03
(PID.TID 0000.0001) %MON ke_mean                      =   2.8601018984170E-06
(PID.TID 0000.0001) %MON ke_vol                       =   4.6183293254853E+12
(PID.TID 0000.0001) // =======================================================
(PID.TID 0000.0001) // End MONITOR dynamic field statistics
(PID.TID 0000.0001) // =======================================================
(PID.TID 0000.0001) // =======================================================
(PID.TID 0000.0001) // Begin OBCS MONITOR field statistics
(PID.TID 0000.0001) // =======================================================
(PID.TID 0000.0001) %MON obc_N_vVel_max               =   9.9941028547845E-08
(PID.TID 0000.0001) %MON obc_N_vVel_min               =   9.9941028547843E-08
(PID.TID 0000.0001) %MON obc_N_vVel_mean              =   9.9941028547845E-08
(PID.TID 0000.0001) %MON obc_N_vVel_sd                =  -7.1470798013024E-28
(PID.TID 0000.0001) %MON obc_N_vVel_Int               =   6.5961078841578E+00
(PID.TID 0000.0001) // =======================================================
(PID.TID 0000.0001) // End OBCS MONITOR field statistics
(PID.TID 0000.0001) // =======================================================
 cg2d: Sum(rhs),rhsMax =   3.00408068810615E+00  4.53035855031598E+02
(PID.TID 0000.0001)      cg2d_init_res =   7.13858801944988E-06
(PID.TID 0000.0001)      cg2d_iters(min,last) =      -1      80
(PID.TID 0000.0001)      cg2d_last_res =   8.23478052292537E-12
(PID.TID 0000.0001) // =======================================================
(PID.TID 0000.0001) // Begin MONITOR dynamic field statistics
(PID.TID 0000.0001) // =======================================================
(PID.TID 0000.0001) %MON time_tsnumber                =                  1590
(PID.TID 0000.0001) %MON time_secondsf                =   1.5900000000000E+05
(PID.TID 0000.0001) %MON dynstat_eta_max              =   5.7999916500858E+00
(PID.TID 0000.0001) %MON dynstat_eta_min              =  -1.4163688882689E+01
(PID.TID 0000.0001) %MON dynstat_eta_mean             =  -2.5202893761483E+00
(PID.TID 0000.0001) %MON dynstat_eta_sd               =   4.9399887458081E+00
(PID.TID 0000.0001) %MON dynstat_eta_del2             =   1.9059910304556E-01
(PID.TID 0000.0001) %MON dynstat_uvel_max             =   1.6836160731805E-02
(PID.TID 0000.0001) %MON dynstat_uvel_min             =  -7.5705294390360E-02
(PID.TID 0000.0001) %MON dynstat_uvel_mean            =   7.8978564360013E-09
(PID.TID 0000.0001) %MON dynstat_uvel_sd              =   2.2237490324020E-03
(PID.TID 0000.0001) %MON dynstat_uvel_del2            =   3.5324386684755E-06
(PID.TID 0000.0001) %MON dynstat_vvel_max             =   3.9717092727626E-02
(PID.TID 0000.0001) %MON dynstat_vvel_min             =  -2.3720010511067E-02
(PID.TID 0000.0001) %MON dynstat_vvel_mean            =   1.6274629916017E-07
(PID.TID 0000.0001) %MON dynstat_vvel_sd              =   9.4372273182647E-04
(PID.TID 0000.0001) %MON dynstat_vvel_del2            =   2.3913472801466E-06
(PID.TID 0000.0001) %MON dynstat_wvel_max             =   2.6989207564144E-03
(PID.TID 0000.0001) %MON dynstat_wvel_min             =  -3.1675280028803E-03
(PID.TID 0000.0001) %MON dynstat_wvel_mean            =   5.8399382580510E-10
(PID.TID 0000.0001) %MON dynstat_wvel_sd              =   4.5990691925028E-05
(PID.TID 0000.0001) %MON dynstat_wvel_del2            =   1.6703780635766E-07
(PID.TID 0000.0001) %MON dynstat_theta_max            =   1.2000000000000E+00
(PID.TID 0000.0001) %MON dynstat_theta_min            =  -1.0000000000000E+00
(PID.TID 0000.0001) %MON dynstat_theta_mean           =   5.6468069188633E-01
(PID.TID 0000.0001) %MON dynstat_theta_sd             =   8.4873958633303E-01
(PID.TID 0000.0001) %MON dynstat_theta_del2           =   6.5781561947396E-06
(PID.TID 0000.0001) %MON dynstat_salt_max             =   3.4700000000000E+01
(PID.TID 0000.0001) %MON dynstat_salt_min             =   3.4000000000000E+01
(PID.TID 0000.0001) %MON dynstat_salt_mean            =   3.4497786390774E+01
(PID.TID 0000.0001) %MON dynstat_salt_sd              =   2.7003757063221E-01
(PID.TID 0000.0001) %MON dynstat_salt_del2            =   2.6081780155356E-06
(PID.TID 0000.0001) %MON advcfl_uvel_max              =   7.5705294390360E-03
(PID.TID 0000.0001) %MON advcfl_vvel_max              =   3.9717092727626E-03
(PID.TID 0000.0001) %MON advcfl_wvel_max              =   1.5837640014401E-02
(PID.TID 0000.0001) %MON advcfl_W_hf_max              =   1.5837640014401E-02
(PID.TID 0000.0001) %MON pe_b_mean                    =  -6.8082713677074E-01
(PID.TID 0000.0001) %MON ke_max                       =   2.7205507833164E-03
(PID.TID 0000.0001) %MON ke_mean                      =   2.8713438227925E-06
(PID.TID 0000.0001) %MON ke_vol                       =   4.6183294032326E+12
(PID.TID 0000.0001) // =======================================================
(PID.TID 0000.0001) // End MONITOR dynamic field statistics
(PID.TID 0000.0001) // =======================================================
(PID.TID 0000.0001) // =======================================================
(PID.TID 0000.0001) // Begin OBCS MONITOR field statistics
(PID.TID 0000.0001) // =======================================================
(PID.TID 0000.0001) %MON obc_N_vVel_max               =   9.9712867374933E-08
(PID.TID 0000.0001) %MON obc_N_vVel_min               =   9.9712867374931E-08
(PID.TID 0000.0001) %MON obc_N_vVel_mean              =   9.9712867374933E-08
(PID.TID 0000.0001) %MON obc_N_vVel_sd                =  -7.3837380728687E-28
(PID.TID 0000.0001) %MON obc_N_vVel_Int               =   6.5810492467456E+00
(PID.TID 0000.0001) // =======================================================
(PID.TID 0000.0001) // End OBCS MONITOR field statistics
(PID.TID 0000.0001) // =======================================================
 cg2d: Sum(rhs),rhsMax =   3.00406519868303E+00  4.53035830603501E+02
(PID.TID 0000.0001)      cg2d_init_res =   7.14843671403646E-06
(PID.TID 0000.0001)      cg2d_iters(min,last) =      -1      80
(PID.TID 0000.0001)      cg2d_last_res =   8.24902806511427E-12
(PID.TID 0000.0001) // =======================================================
(PID.TID 0000.0001) // Begin MONITOR dynamic field statistics
(PID.TID 0000.0001) // =======================================================
(PID.TID 0000.0001) %MON time_tsnumber                =                  1591
(PID.TID 0000.0001) %MON time_secondsf                =   1.5910000000000E+05
(PID.TID 0000.0001) %MON dynstat_eta_max              =   5.7999954475887E+00
(PID.TID 0000.0001) %MON dynstat_eta_min              =  -1.4163685260281E+01
(PID.TID 0000.0001) %MON dynstat_eta_mean             =  -2.5202762453193E+00
(PID.TID 0000.0001) %MON dynstat_eta_sd               =   4.9399849467188E+00
(PID.TID 0000.0001) %MON dynstat_eta_del2             =   1.9059914200620E-01
(PID.TID 0000.0001) %MON dynstat_uvel_max             =   1.6867995792726E-02
(PID.TID 0000.0001) %MON dynstat_uvel_min             =  -7.5842739862551E-02
(PID.TID 0000.0001) %MON dynstat_uvel_mean            =   7.9036934137601E-09
(PID.TID 0000.0001) %MON dynstat_uvel_sd              =   2.2281777523616E-03
(PID.TID 0000.0001) %MON dynstat_uvel_del2            =   3.5401294223402E-06
(PID.TID 0000.0001) %MON dynstat_vvel_max             =   3.9759642076342E-02
(PID.TID 0000.0001) %MON dynstat_vvel_min             =  -2.3779810569700E-02
(PID.TID 0000.0001) %MON dynstat_vvel_mean            =   1.6310118021056E-07
(PID.TID 0000.0001) %MON dynstat_vvel_sd              =   9.4542238739803E-04
(PID.TID 0000.0001) %MON dynstat_vvel_del2            =   2.3951460534701E-06
(PID.TID 0000.0001) %MON dynstat_wvel_max             =   2.7024562988560E-03
(PID.TID 0000.0001) %MON dynstat_wvel_min             =  -3.1683948529237E-03
(PID.TID 0000.0001) %MON dynstat_wvel_mean            =   5.8703140395686E-10
(PID.TID 0000.0001) %MON dynstat_wvel_sd              =   4.6053947488362E-05
(PID.TID 0000.0001) %MON dynstat_wvel_del2            =   1.6722100661553E-07
(PID.TID 0000.0001) %MON dynstat_theta_max            =   1.2000000000000E+00
(PID.TID 0000.0001) %MON dynstat_theta_min            =  -1.0000000000000E+00
(PID.TID 0000.0001) %MON dynstat_theta_mean           =   5.6467922460539E-01
(PID.TID 0000.0001) %MON dynstat_theta_sd             =   8.4873895848004E-01
(PID.TID 0000.0001) %MON dynstat_theta_del2           =   6.5884096991576E-06
(PID.TID 0000.0001) %MON dynstat_salt_max             =   3.4700000000000E+01
(PID.TID 0000.0001) %MON dynstat_salt_min             =   3.4000000000000E+01
(PID.TID 0000.0001) %MON dynstat_salt_mean            =   3.4497785803933E+01
(PID.TID 0000.0001) %MON dynstat_salt_sd              =   2.7003733760608E-01
(PID.TID 0000.0001) %MON dynstat_salt_del2            =   2.6122583820464E-06
(PID.TID 0000.0001) %MON advcfl_uvel_max              =   7.5842739862551E-03
(PID.TID 0000.0001) %MON advcfl_vvel_max              =   3.9759642076342E-03
(PID.TID 0000.0001) %MON advcfl_wvel_max              =   1.5841974264618E-02
(PID.TID 0000.0001) %MON advcfl_W_hf_max              =   1.5841974264618E-02
(PID.TID 0000.0001) %MON pe_b_mean                    =  -6.8082317454861E-01
(PID.TID 0000.0001) %MON ke_max                       =   2.7309213028948E-03
(PID.TID 0000.0001) %MON ke_mean                      =   2.8826220771488E-06
(PID.TID 0000.0001) %MON ke_vol                       =   4.6183294811057E+12
(PID.TID 0000.0001) // =======================================================
(PID.TID 0000.0001) // End MONITOR dynamic field statistics
(PID.TID 0000.0001) // =======================================================
(PID.TID 0000.0001) // =======================================================
(PID.TID 0000.0001) // Begin OBCS MONITOR field statistics
(PID.TID 0000.0001) // =======================================================
(PID.TID 0000.0001) %MON obc_N_vVel_max               =   9.9771972239848E-08
(PID.TID 0000.0001) %MON obc_N_vVel_min               =   9.9771972239848E-08
(PID.TID 0000.0001) %MON obc_N_vVel_mean              =   9.9771972239848E-08
(PID.TID 0000.0001) %MON obc_N_vVel_sd                =   8.2366278202312E-15
(PID.TID 0000.0001) %MON obc_N_vVel_Int               =   6.5849501678300E+00
(PID.TID 0000.0001) // =======================================================
(PID.TID 0000.0001) // End OBCS MONITOR field statistics
(PID.TID 0000.0001) // =======================================================
 cg2d: Sum(rhs),rhsMax =   3.00404968457166E+00  4.53035806200717E+02
(PID.TID 0000.0001)      cg2d_init_res =   7.15828594232706E-06
(PID.TID 0000.0001)      cg2d_iters(min,last) =      -1      80
(PID.TID 0000.0001)      cg2d_last_res =   8.26325875043012E-12
(PID.TID 0000.0001) // =======================================================
(PID.TID 0000.0001) // Begin MONITOR dynamic field statistics
(PID.TID 0000.0001) // =======================================================
(PID.TID 0000.0001) %MON time_tsnumber                =                  1592
(PID.TID 0000.0001) %MON time_secondsf                =   1.5920000000000E+05
(PID.TID 0000.0001) %MON dynstat_eta_max              =   5.7999992529336E+00
(PID.TID 0000.0001) %MON dynstat_eta_min              =  -1.4163681636515E+01
(PID.TID 0000.0001) %MON dynstat_eta_mean             =  -2.5202630939202E+00
(PID.TID 0000.0001) %MON dynstat_eta_sd               =   4.9399811417576E+00
(PID.TID 0000.0001) %MON dynstat_eta_del2             =   1.9059918102105E-01
(PID.TID 0000.0001) %MON dynstat_uvel_max             =   1.6899851820691E-02
(PID.TID 0000.0001) %MON dynstat_uvel_min             =  -7.5980274073054E-02
(PID.TID 0000.0001) %MON dynstat_uvel_mean            =   7.9094257287564E-09
(PID.TID 0000.0001) %MON dynstat_uvel_sd              =   2.2326119415404E-03
(PID.TID 0000.0001) %MON dynstat_uvel_del2            =   3.5478334016032E-06
(PID.TID 0000.0001) %MON dynstat_vvel_max             =   3.9802181088059E-02
(PID.TID 0000.0001) %MON dynstat_vvel_min             =  -2.3839677164180E-02
(PID.TID 0000.0001) %MON dynstat_vvel_mean            =   1.6376323600639E-07
(PID.TID 0000.0001) %MON dynstat_vvel_sd              =   9.4712448158952E-04
(PID.TID 0000.0001) %MON dynstat_vvel_del2            =   2.3989491110685E-06
(PID.TID 0000.0001) %MON dynstat_wvel_max             =   2.7059899004319E-03
(PID.TID 0000.0001) %MON dynstat_wvel_min             =  -3.1692331901186E-03
(PID.TID 0000.0001) %MON dynstat_wvel_mean            =   5.9002437749028E-10
(PID.TID 0000.0001) %MON dynstat_wvel_sd              =   4.6117456486628E-05
(PID.TID 0000.0001) %MON dynstat_wvel_del2            =   1.6740504700506E-07
(PID.TID 0000.0001) %MON dynstat_theta_max            =   1.2000000000000E+00
(PID.TID 0000.0001) %MON dynstat_theta_min            =  -1.0000000000000E+00
(PID.TID 0000.0001) %MON dynstat_theta_mean           =   5.6467775499327E-01
(PID.TID 0000.0001) %MON dynstat_theta_sd             =   8.4873832986720E-01
(PID.TID 0000.0001) %MON dynstat_theta_del2           =   6.5986725497803E-06
(PID.TID 0000.0001) %MON dynstat_salt_max             =   3.4700000000000E+01
(PID.TID 0000.0001) %MON dynstat_salt_min             =   3.4000000000000E+01
(PID.TID 0000.0001) %MON dynstat_salt_mean            =   3.4497785216159E+01
(PID.TID 0000.0001) %MON dynstat_salt_sd              =   2.7003710432260E-01
(PID.TID 0000.0001) %MON dynstat_salt_del2            =   2.6163425325464E-06
(PID.TID 0000.0001) %MON advcfl_uvel_max              =   7.5980274073054E-03
(PID.TID 0000.0001) %MON advcfl_vvel_max              =   3.9802181088059E-03
(PID.TID 0000.0001) %MON advcfl_wvel_max              =   1.5846165950593E-02
(PID.TID 0000.0001) %MON advcfl_W_hf_max              =   1.5846165950593E-02
(PID.TID 0000.0001) %MON pe_b_mean                    =  -6.8081920614439E-01
(PID.TID 0000.0001) %MON ke_max                       =   2.7413142822201E-03
(PID.TID 0000.0001) %MON ke_mean                      =   2.8939367558653E-06
(PID.TID 0000.0001) %MON ke_vol                       =   4.6183295591028E+12
(PID.TID 0000.0001) // =======================================================
(PID.TID 0000.0001) // End MONITOR dynamic field statistics
(PID.TID 0000.0001) // =======================================================
(PID.TID 0000.0001) // =======================================================
(PID.TID 0000.0001) // Begin OBCS MONITOR field statistics
(PID.TID 0000.0001) // =======================================================
(PID.TID 0000.0001) %MON obc_N_vVel_max               =   1.0012165784052E-07
(PID.TID 0000.0001) %MON obc_N_vVel_min               =   1.0012165784052E-07
(PID.TID 0000.0001) %MON obc_N_vVel_mean              =   1.0012165784052E-07
(PID.TID 0000.0001) %MON obc_N_vVel_sd                =  -4.4807299416553E-28
(PID.TID 0000.0001) %MON obc_N_vVel_Int               =   6.6080294174746E+00
(PID.TID 0000.0001) // =======================================================
(PID.TID 0000.0001) // End OBCS MONITOR field statistics
(PID.TID 0000.0001) // =======================================================
 cg2d: Sum(rhs),rhsMax =   3.00403414611990E+00  4.53035781825351E+02
(PID.TID 0000.0001)      cg2d_init_res =   7.16813948819094E-06
(PID.TID 0000.0001)      cg2d_iters(min,last) =      -1      80
(PID.TID 0000.0001)      cg2d_last_res =   8.27747146130551E-12
(PID.TID 0000.0001) // =======================================================
(PID.TID 0000.0001) // Begin MONITOR dynamic field statistics
(PID.TID 0000.0001) // =======================================================
(PID.TID 0000.0001) %MON time_tsnumber                =                  1593
(PID.TID 0000.0001) %MON time_secondsf                =   1.5930000000000E+05
(PID.TID 0000.0001) %MON dynstat_eta_max              =   5.8000030654960E+00
(PID.TID 0000.0001) %MON dynstat_eta_min              =  -1.4163678011976E+01
(PID.TID 0000.0001) %MON dynstat_eta_mean             =  -2.5202499222546E+00
(PID.TID 0000.0001) %MON dynstat_eta_sd               =   4.9399773310155E+00
(PID.TID 0000.0001) %MON dynstat_eta_del2             =   1.9059922009021E-01
(PID.TID 0000.0001) %MON dynstat_uvel_max             =   1.6931728635044E-02
(PID.TID 0000.0001) %MON dynstat_uvel_min             =  -7.6117896978044E-02
(PID.TID 0000.0001) %MON dynstat_uvel_mean            =   7.9153796717825E-09
(PID.TID 0000.0001) %MON dynstat_uvel_sd              =   2.2370515946148E-03
(PID.TID 0000.0001) %MON dynstat_uvel_del2            =   3.5555506128591E-06
(PID.TID 0000.0001) %MON dynstat_vvel_max             =   3.9844709670450E-02
(PID.TID 0000.0001) %MON dynstat_vvel_min             =  -2.3899610034626E-02
(PID.TID 0000.0001) %MON dynstat_vvel_mean            =   1.6472397870700E-07
(PID.TID 0000.0001) %MON dynstat_vvel_sd              =   9.4882903423901E-04
(PID.TID 0000.0001) %MON dynstat_vvel_del2            =   2.4027565069021E-06
(PID.TID 0000.0001) %MON dynstat_wvel_max             =   2.7095215365789E-03
(PID.TID 0000.0001) %MON dynstat_wvel_min             =  -3.1700430054461E-03
(PID.TID 0000.0001) %MON dynstat_wvel_mean            =   5.9292317918791E-10
(PID.TID 0000.0001) %MON dynstat_wvel_sd              =   4.6181273669685E-05
(PID.TID 0000.0001) %MON dynstat_wvel_del2            =   1.6759014407890E-07
(PID.TID 0000.0001) %MON dynstat_theta_max            =   1.2000000000000E+00
(PID.TID 0000.0001) %MON dynstat_theta_min            =  -1.0000000000000E+00
(PID.TID 0000.0001) %MON dynstat_theta_mean           =   5.6467628304898E-01
(PID.TID 0000.0001) %MON dynstat_theta_sd             =   8.4873770049112E-01
(PID.TID 0000.0001) %MON dynstat_theta_del2           =   6.6089431798790E-06
(PID.TID 0000.0001) %MON dynstat_salt_max             =   3.4700000000000E+01
(PID.TID 0000.0001) %MON dynstat_salt_min             =   3.4000000000000E+01
(PID.TID 0000.0001) %MON dynstat_salt_mean            =   3.4497784627453E+01
(PID.TID 0000.0001) %MON dynstat_salt_sd              =   2.7003687078058E-01
(PID.TID 0000.0001) %MON dynstat_salt_del2            =   2.6204296434291E-06
(PID.TID 0000.0001) %MON advcfl_uvel_max              =   7.6117896978044E-03
(PID.TID 0000.0001) %MON advcfl_vvel_max              =   3.9844709670450E-03
(PID.TID 0000.0001) %MON advcfl_wvel_max              =   1.5850215027231E-02
(PID.TID 0000.0001) %MON advcfl_W_hf_max              =   1.5850215027231E-02
(PID.TID 0000.0001) %MON pe_b_mean                    =  -6.8081523161647E-01
(PID.TID 0000.0001) %MON ke_max                       =   2.7517296468558E-03
(PID.TID 0000.0001) %MON ke_mean                      =   2.9052879499173E-06
(PID.TID 0000.0001) %MON ke_vol                       =   4.6183296372221E+12
(PID.TID 0000.0001) // =======================================================
(PID.TID 0000.0001) // End MONITOR dynamic field statistics
(PID.TID 0000.0001) // =======================================================
(PID.TID 0000.0001) // =======================================================
(PID.TID 0000.0001) // Begin OBCS MONITOR field statistics
(PID.TID 0000.0001) // =======================================================
(PID.TID 0000.0001) %MON obc_N_vVel_max               =   1.0075841725543E-07
(PID.TID 0000.0001) %MON obc_N_vVel_min               =   1.0075841725543E-07
(PID.TID 0000.0001) %MON obc_N_vVel_mean              =   1.0075841725543E-07
(PID.TID 0000.0001) %MON obc_N_vVel_sd                =   7.2155955918127E-15
(PID.TID 0000.0001) %MON obc_N_vVel_Int               =   6.6500555388584E+00
(PID.TID 0000.0001) // =======================================================
(PID.TID 0000.0001) // End OBCS MONITOR field statistics
(PID.TID 0000.0001) // =======================================================
 cg2d: Sum(rhs),rhsMax =   3.00401858366950E+00  4.53035757478392E+02
(PID.TID 0000.0001)      cg2d_init_res =   7.17780816447608E-06
(PID.TID 0000.0001)      cg2d_iters(min,last) =      -1      80
(PID.TID 0000.0001)      cg2d_last_res =   8.29167818628174E-12
(PID.TID 0000.0001) // =======================================================
(PID.TID 0000.0001) // Begin MONITOR dynamic field statistics
(PID.TID 0000.0001) // =======================================================
(PID.TID 0000.0001) %MON time_tsnumber                =                  1594
(PID.TID 0000.0001) %MON time_secondsf                =   1.5940000000000E+05
(PID.TID 0000.0001) %MON dynstat_eta_max              =   5.8000068846793E+00
(PID.TID 0000.0001) %MON dynstat_eta_min              =  -1.4163674387196E+01
(PID.TID 0000.0001) %MON dynstat_eta_mean             =  -2.5202367306146E+00
(PID.TID 0000.0001) %MON dynstat_eta_sd               =   4.9399735145444E+00
(PID.TID 0000.0001) %MON dynstat_eta_del2             =   1.9059925921187E-01
(PID.TID 0000.0001) %MON dynstat_uvel_max             =   1.6963626054801E-02
(PID.TID 0000.0001) %MON dynstat_uvel_min             =  -7.6255608527351E-02
(PID.TID 0000.0001) %MON dynstat_uvel_mean            =   7.9218118742222E-09
(PID.TID 0000.0001) %MON dynstat_uvel_sd              =   2.2414967068660E-03
(PID.TID 0000.0001) %MON dynstat_uvel_del2            =   3.5632810581800E-06
(PID.TID 0000.0001) %MON dynstat_vvel_max             =   3.9887227728798E-02
(PID.TID 0000.0001) %MON dynstat_vvel_min             =  -2.3959608923544E-02
(PID.TID 0000.0001) %MON dynstat_vvel_mean            =   1.6596806209519E-07
(PID.TID 0000.0001) %MON dynstat_vvel_sd              =   9.5053606261276E-04
(PID.TID 0000.0001) %MON dynstat_vvel_del2            =   2.4065682808712E-06
(PID.TID 0000.0001) %MON dynstat_wvel_max             =   2.7130511828610E-03
(PID.TID 0000.0001) %MON dynstat_wvel_min             =  -3.1708242897560E-03
(PID.TID 0000.0001) %MON dynstat_wvel_mean            =   5.9568376572671E-10
(PID.TID 0000.0001) %MON dynstat_wvel_sd              =   4.6245438740707E-05
(PID.TID 0000.0001) %MON dynstat_wvel_del2            =   1.6777646596695E-07
(PID.TID 0000.0001) %MON dynstat_theta_max            =   1.2000000000000E+00
(PID.TID 0000.0001) %MON dynstat_theta_min            =  -1.0000000000000E+00
(PID.TID 0000.0001) %MON dynstat_theta_mean           =   5.6467480877163E-01
(PID.TID 0000.0001) %MON dynstat_theta_sd             =   8.4873707034292E-01
(PID.TID 0000.0001) %MON dynstat_theta_del2           =   6.6192138884190E-06
(PID.TID 0000.0001) %MON dynstat_salt_max             =   3.4700000000000E+01
(PID.TID 0000.0001) %MON dynstat_salt_min             =   3.4000000000000E+01
(PID.TID 0000.0001) %MON dynstat_salt_mean            =   3.4497784037814E+01
(PID.TID 0000.0001) %MON dynstat_salt_sd              =   2.7003663697650E-01
(PID.TID 0000.0001) %MON dynstat_salt_del2            =   2.6245170927051E-06
(PID.TID 0000.0001) %MON advcfl_uvel_max              =   7.6255608527351E-03
(PID.TID 0000.0001) %MON advcfl_vvel_max              =   3.9887227728798E-03
(PID.TID 0000.0001) %MON advcfl_wvel_max              =   1.5854121448780E-02
(PID.TID 0000.0001) %MON advcfl_W_hf_max              =   1.5854121448780E-02
(PID.TID 0000.0001) %MON pe_b_mean                    =  -6.8081125101956E-01
(PID.TID 0000.0001) %MON ke_max                       =   2.7621673218036E-03
(PID.TID 0000.0001) %MON ke_mean                      =   2.9166757493131E-06
(PID.TID 0000.0001) %MON ke_vol                       =   4.6183297154618E+12
(PID.TID 0000.0001) // =======================================================
(PID.TID 0000.0001) // End MONITOR dynamic field statistics
(PID.TID 0000.0001) // =======================================================
(PID.TID 0000.0001) // =======================================================
(PID.TID 0000.0001) // Begin OBCS MONITOR field statistics
(PID.TID 0000.0001) // =======================================================
(PID.TID 0000.0001) %MON obc_N_vVel_max               =   1.0167203934562E-07
(PID.TID 0000.0001) %MON obc_N_vVel_min               =   1.0167203934562E-07
(PID.TID 0000.0001) %MON obc_N_vVel_mean              =   1.0167203934562E-07
(PID.TID 0000.0001) %MON obc_N_vVel_sd                =   1.9007848236747E-14
(PID.TID 0000.0001) %MON obc_N_vVel_Int               =   6.7103545968109E+00
(PID.TID 0000.0001) // =======================================================
(PID.TID 0000.0001) // End OBCS MONITOR field statistics
(PID.TID 0000.0001) // =======================================================
 cg2d: Sum(rhs),rhsMax =   3.00400299754786E+00  4.53035733159653E+02
(PID.TID 0000.0001)      cg2d_init_res =   7.18696768500665E-06
(PID.TID 0000.0001)      cg2d_iters(min,last) =      -1      80
(PID.TID 0000.0001)      cg2d_last_res =   8.30591579257439E-12
(PID.TID 0000.0001) // =======================================================
(PID.TID 0000.0001) // Begin MONITOR dynamic field statistics
(PID.TID 0000.0001) // =======================================================
(PID.TID 0000.0001) %MON time_tsnumber                =                  1595
(PID.TID 0000.0001) %MON time_secondsf                =   1.5950000000000E+05
(PID.TID 0000.0001) %MON dynstat_eta_max              =   5.8000107099321E+00
(PID.TID 0000.0001) %MON dynstat_eta_min              =  -1.4163670762677E+01
(PID.TID 0000.0001) %MON dynstat_eta_mean             =  -2.5202235192739E+00
(PID.TID 0000.0001) %MON dynstat_eta_sd               =   4.9399696923330E+00
(PID.TID 0000.0001) %MON dynstat_eta_del2             =   1.9059929838086E-01
(PID.TID 0000.0001) %MON dynstat_uvel_max             =   1.6995543899060E-02
(PID.TID 0000.0001) %MON dynstat_uvel_min             =  -7.6393408663932E-02
(PID.TID 0000.0001) %MON dynstat_uvel_mean            =   7.9287999270755E-09
(PID.TID 0000.0001) %MON dynstat_uvel_sd              =   2.2459472752318E-03
(PID.TID 0000.0001) %MON dynstat_uvel_del2            =   3.5710247271859E-06
(PID.TID 0000.0001) %MON dynstat_vvel_max             =   3.9929735166073E-02
(PID.TID 0000.0001) %MON dynstat_vvel_min             =  -2.4019673576156E-02
(PID.TID 0000.0001) %MON dynstat_vvel_mean            =   1.6747379677581E-07
(PID.TID 0000.0001) %MON dynstat_vvel_sd              =   9.5224558450134E-04
(PID.TID 0000.0001) %MON dynstat_vvel_del2            =   2.4103844612968E-06
(PID.TID 0000.0001) %MON dynstat_wvel_max             =   2.7165788149284E-03
(PID.TID 0000.0001) %MON dynstat_wvel_min             =  -3.1715770351894E-03
(PID.TID 0000.0001) %MON dynstat_wvel_mean            =   5.9826948959996E-10
(PID.TID 0000.0001) %MON dynstat_wvel_sd              =   4.6309974930493E-05
(PID.TID 0000.0001) %MON dynstat_wvel_del2            =   1.6796413109104E-07
(PID.TID 0000.0001) %MON dynstat_theta_max            =   1.2000000000000E+00
(PID.TID 0000.0001) %MON dynstat_theta_min            =  -1.0000000000000E+00
(PID.TID 0000.0001) %MON dynstat_theta_mean           =   5.6467333216039E-01
(PID.TID 0000.0001) %MON dynstat_theta_sd             =   8.4873643943053E-01
(PID.TID 0000.0001) %MON dynstat_theta_del2           =   6.6294941181915E-06
(PID.TID 0000.0001) %MON dynstat_salt_max             =   3.4700000000000E+01
(PID.TID 0000.0001) %MON dynstat_salt_min             =   3.4000000000000E+01
(PID.TID 0000.0001) %MON dynstat_salt_mean            =   3.4497783447241E+01
(PID.TID 0000.0001) %MON dynstat_salt_sd              =   2.7003640291424E-01
(PID.TID 0000.0001) %MON dynstat_salt_del2            =   2.6286083385870E-06
(PID.TID 0000.0001) %MON advcfl_uvel_max              =   7.6393408663932E-03
(PID.TID 0000.0001) %MON advcfl_vvel_max              =   3.9929735166073E-03
(PID.TID 0000.0001) %MON advcfl_wvel_max              =   1.5857885175947E-02
(PID.TID 0000.0001) %MON advcfl_W_hf_max              =   1.5857885175947E-02
(PID.TID 0000.0001) %MON pe_b_mean                    =  -6.8080726440349E-01
(PID.TID 0000.0001) %MON ke_max                       =   2.7726272315327E-03
(PID.TID 0000.0001) %MON ke_mean                      =   2.9281002483520E-06
(PID.TID 0000.0001) %MON ke_vol                       =   4.6183297938201E+12
(PID.TID 0000.0001) // =======================================================
(PID.TID 0000.0001) // End MONITOR dynamic field statistics
(PID.TID 0000.0001) // =======================================================
(PID.TID 0000.0001) // =======================================================
(PID.TID 0000.0001) // Begin OBCS MONITOR field statistics
(PID.TID 0000.0001) // =======================================================
(PID.TID 0000.0001) %MON obc_N_vVel_max               =   1.0284595222271E-07
(PID.TID 0000.0001) %MON obc_N_vVel_min               =   1.0284595222271E-07
(PID.TID 0000.0001) %MON obc_N_vVel_mean              =   1.0284595222271E-07
(PID.TID 0000.0001) %MON obc_N_vVel_sd                =  -7.9043862703145E-28
(PID.TID 0000.0001) %MON obc_N_vVel_Int               =   6.7878328466990E+00
(PID.TID 0000.0001) // =======================================================
(PID.TID 0000.0001) // End OBCS MONITOR field statistics
(PID.TID 0000.0001) // =======================================================
 cg2d: Sum(rhs),rhsMax =   3.00398738806021E+00  4.53035708867796E+02
(PID.TID 0000.0001)      cg2d_init_res =   7.19687628925138E-06
(PID.TID 0000.0001)      cg2d_iters(min,last) =      -1      80
(PID.TID 0000.0001)      cg2d_last_res =   8.32003446547741E-12
(PID.TID 0000.0001) // =======================================================
(PID.TID 0000.0001) // Begin MONITOR dynamic field statistics
(PID.TID 0000.0001) // =======================================================
(PID.TID 0000.0001) %MON time_tsnumber                =                  1596
(PID.TID 0000.0001) %MON time_secondsf                =   1.5960000000000E+05
(PID.TID 0000.0001) %MON dynstat_eta_max              =   5.8000145407317E+00
(PID.TID 0000.0001) %MON dynstat_eta_min              =  -1.4163667138863E+01
(PID.TID 0000.0001) %MON dynstat_eta_mean             =  -2.5202102884811E+00
(PID.TID 0000.0001) %MON dynstat_eta_sd               =   4.9399658645512E+00
(PID.TID 0000.0001) %MON dynstat_eta_del2             =   1.9059933760454E-01
(PID.TID 0000.0001) %MON dynstat_uvel_max             =   1.7027482066987E-02
(PID.TID 0000.0001) %MON dynstat_uvel_min             =  -7.6531297324056E-02
(PID.TID 0000.0001) %MON dynstat_uvel_mean            =   7.9366588553144E-09
(PID.TID 0000.0001) %MON dynstat_uvel_sd              =   2.2504032946155E-03
(PID.TID 0000.0001) %MON dynstat_uvel_del2            =   3.5787816256800E-06
(PID.TID 0000.0001) %MON dynstat_vvel_max             =   3.9972231884421E-02
(PID.TID 0000.0001) %MON dynstat_vvel_min             =  -2.4079803739859E-02
(PID.TID 0000.0001) %MON dynstat_vvel_mean            =   1.6921330312357E-07
(PID.TID 0000.0001) %MON dynstat_vvel_sd              =   9.5395760501896E-04
(PID.TID 0000.0001) %MON dynstat_vvel_del2            =   2.4142050521846E-06
(PID.TID 0000.0001) %MON dynstat_wvel_max             =   2.7201044086151E-03
(PID.TID 0000.0001) %MON dynstat_wvel_min             =  -3.1723011238312E-03
(PID.TID 0000.0001) %MON dynstat_wvel_mean            =   6.0062723532765E-10
(PID.TID 0000.0001) %MON dynstat_wvel_sd              =   4.6374886790112E-05
(PID.TID 0000.0001) %MON dynstat_wvel_del2            =   1.6815317796289E-07
(PID.TID 0000.0001) %MON dynstat_theta_max            =   1.2000000000000E+00
(PID.TID 0000.0001) %MON dynstat_theta_min            =  -1.0000000000000E+00
(PID.TID 0000.0001) %MON dynstat_theta_mean           =   5.6467185321447E-01
(PID.TID 0000.0001) %MON dynstat_theta_sd             =   8.4873580775195E-01
(PID.TID 0000.0001) %MON dynstat_theta_del2           =   6.6397835040931E-06
(PID.TID 0000.0001) %MON dynstat_salt_max             =   3.4700000000000E+01
(PID.TID 0000.0001) %MON dynstat_salt_min             =   3.4000000000000E+01
(PID.TID 0000.0001) %MON dynstat_salt_mean            =   3.4497782855734E+01
(PID.TID 0000.0001) %MON dynstat_salt_sd              =   2.7003616859350E-01
(PID.TID 0000.0001) %MON dynstat_salt_del2            =   2.6327033051041E-06
(PID.TID 0000.0001) %MON advcfl_uvel_max              =   7.6531297324056E-03
(PID.TID 0000.0001) %MON advcfl_vvel_max              =   3.9972231884421E-03
(PID.TID 0000.0001) %MON advcfl_wvel_max              =   1.5861505619156E-02
(PID.TID 0000.0001) %MON advcfl_W_hf_max              =   1.5861505619156E-02
(PID.TID 0000.0001) %MON pe_b_mean                    =  -6.8080327181171E-01
(PID.TID 0000.0001) %MON ke_max                       =   2.7831093005891E-03
(PID.TID 0000.0001) %MON ke_mean                      =   2.9395615249219E-06
(PID.TID 0000.0001) %MON ke_vol                       =   4.6183298722955E+12
(PID.TID 0000.0001) // =======================================================
(PID.TID 0000.0001) // End MONITOR dynamic field statistics
(PID.TID 0000.0001) // =======================================================
(PID.TID 0000.0001) // =======================================================
(PID.TID 0000.0001) // Begin OBCS MONITOR field statistics
(PID.TID 0000.0001) // =======================================================
(PID.TID 0000.0001) %MON obc_N_vVel_max               =   1.0425765838187E-07
(PID.TID 0000.0001) %MON obc_N_vVel_min               =   1.0425765838187E-07
(PID.TID 0000.0001) %MON obc_N_vVel_mean              =   1.0425765838187E-07
(PID.TID 0000.0001) %MON obc_N_vVel_sd                =   1.5229087501718E-14
(PID.TID 0000.0001) %MON obc_N_vVel_Int               =   6.8810054532033E+00
(PID.TID 0000.0001) // =======================================================
(PID.TID 0000.0001) // End OBCS MONITOR field statistics
(PID.TID 0000.0001) // =======================================================
 cg2d: Sum(rhs),rhsMax =   3.00397175548267E+00  4.53035684600361E+02
(PID.TID 0000.0001)      cg2d_init_res =   7.20678577966935E-06
(PID.TID 0000.0001)      cg2d_iters(min,last) =      -1      80
(PID.TID 0000.0001)      cg2d_last_res =   8.33415943479681E-12
(PID.TID 0000.0001) // =======================================================
(PID.TID 0000.0001) // Begin MONITOR dynamic field statistics
(PID.TID 0000.0001) // =======================================================
(PID.TID 0000.0001) %MON time_tsnumber                =                  1597
(PID.TID 0000.0001) %MON time_secondsf                =   1.5970000000000E+05
(PID.TID 0000.0001) %MON dynstat_eta_max              =   5.8000183766051E+00
(PID.TID 0000.0001) %MON dynstat_eta_min              =  -1.4163663516121E+01
(PID.TID 0000.0001) %MON dynstat_eta_mean             =  -2.5201970384541E+00
(PID.TID 0000.0001) %MON dynstat_eta_sd               =   4.9399620312368E+00
(PID.TID 0000.0001) %MON dynstat_eta_del2             =   1.9059937688259E-01
(PID.TID 0000.0001) %MON dynstat_uvel_max             =   1.7059440367792E-02
(PID.TID 0000.0001) %MON dynstat_uvel_min             =  -7.6669274438544E-02
(PID.TID 0000.0001) %MON dynstat_uvel_mean            =   7.9457405491746E-09
(PID.TID 0000.0001) %MON dynstat_uvel_sd              =   2.2548647599644E-03
(PID.TID 0000.0001) %MON dynstat_uvel_del2            =   3.5865517602895E-06
(PID.TID 0000.0001) %MON dynstat_vvel_max             =   4.0014717780501E-02
(PID.TID 0000.0001) %MON dynstat_vvel_min             =  -2.4139999162681E-02
(PID.TID 0000.0001) %MON dynstat_vvel_mean            =   1.7115349807878E-07
(PID.TID 0000.0001) %MON dynstat_vvel_sd              =   9.5567212365649E-04
(PID.TID 0000.0001) %MON dynstat_vvel_del2            =   2.4180300372580E-06
(PID.TID 0000.0001) %MON dynstat_wvel_max             =   2.7236279397724E-03
(PID.TID 0000.0001) %MON dynstat_wvel_min             =  -3.1729965545400E-03
(PID.TID 0000.0001) %MON dynstat_wvel_mean            =   6.0272888845878E-10
(PID.TID 0000.0001) %MON dynstat_wvel_sd              =   4.6440161730015E-05
(PID.TID 0000.0001) %MON dynstat_wvel_del2            =   1.6834359590873E-07
(PID.TID 0000.0001) %MON dynstat_theta_max            =   1.2000000000000E+00
(PID.TID 0000.0001) %MON dynstat_theta_min            =  -1.0000000000000E+00
(PID.TID 0000.0001) %MON dynstat_theta_mean           =   5.6467037193316E-01
(PID.TID 0000.0001) %MON dynstat_theta_sd             =   8.4873517530488E-01
(PID.TID 0000.0001) %MON dynstat_theta_del2           =   6.6500821336780E-06
(PID.TID 0000.0001) %MON dynstat_salt_max             =   3.4700000000000E+01
(PID.TID 0000.0001) %MON dynstat_salt_min             =   3.4000000000000E+01
(PID.TID 0000.0001) %MON dynstat_salt_mean            =   3.4497782263293E+01
(PID.TID 0000.0001) %MON dynstat_salt_sd              =   2.7003593401370E-01
(PID.TID 0000.0001) %MON dynstat_salt_del2            =   2.6368020406711E-06
(PID.TID 0000.0001) %MON advcfl_uvel_max              =   7.6669274438544E-03
(PID.TID 0000.0001) %MON advcfl_vvel_max              =   4.0014717780501E-03
(PID.TID 0000.0001) %MON advcfl_wvel_max              =   1.5864982772700E-02
(PID.TID 0000.0001) %MON advcfl_W_hf_max              =   1.5864982772700E-02
(PID.TID 0000.0001) %MON pe_b_mean                    =  -6.8079927328029E-01
(PID.TID 0000.0001) %MON ke_max                       =   2.7936134526746E-03
(PID.TID 0000.0001) %MON ke_mean                      =   2.9510596516852E-06
(PID.TID 0000.0001) %MON ke_vol                       =   4.6183299508864E+12
(PID.TID 0000.0001) // =======================================================
(PID.TID 0000.0001) // End MONITOR dynamic field statistics
(PID.TID 0000.0001) // =======================================================
(PID.TID 0000.0001) // =======================================================
(PID.TID 0000.0001) // Begin OBCS MONITOR field statistics
(PID.TID 0000.0001) // =======================================================
(PID.TID 0000.0001) %MON obc_N_vVel_max               =   1.0587932513514E-07
(PID.TID 0000.0001) %MON obc_N_vVel_min               =   1.0587932513513E-07
(PID.TID 0000.0001) %MON obc_N_vVel_mean              =   1.0587932513513E-07
(PID.TID 0000.0001) %MON obc_N_vVel_sd                =   1.2560739669470E-14
(PID.TID 0000.0001) %MON obc_N_vVel_Int               =   6.9880354589188E+00
(PID.TID 0000.0001) // =======================================================
(PID.TID 0000.0001) // End OBCS MONITOR field statistics
(PID.TID 0000.0001) // =======================================================
 cg2d: Sum(rhs),rhsMax =   3.00395610005506E+00  4.53035660353840E+02
(PID.TID 0000.0001)      cg2d_init_res =   7.21671017684322E-06
(PID.TID 0000.0001)      cg2d_iters(min,last) =      -1      80
(PID.TID 0000.0001)      cg2d_last_res =   8.34828824745334E-12
(PID.TID 0000.0001) // =======================================================
(PID.TID 0000.0001) // Begin MONITOR dynamic field statistics
(PID.TID 0000.0001) // =======================================================
(PID.TID 0000.0001) %MON time_tsnumber                =                  1598
(PID.TID 0000.0001) %MON time_secondsf                =   1.5980000000000E+05
(PID.TID 0000.0001) %MON dynstat_eta_max              =   5.8000222171319E+00
(PID.TID 0000.0001) %MON dynstat_eta_min              =  -1.4163659894779E+01
(PID.TID 0000.0001) %MON dynstat_eta_mean             =  -2.5201837693748E+00
(PID.TID 0000.0001) %MON dynstat_eta_sd               =   4.9399581924143E+00
(PID.TID 0000.0001) %MON dynstat_eta_del2             =   1.9059941621493E-01
(PID.TID 0000.0001) %MON dynstat_uvel_max             =   1.7091418624948E-02
(PID.TID 0000.0001) %MON dynstat_uvel_min             =  -7.6807339930273E-02
(PID.TID 0000.0001) %MON dynstat_uvel_mean            =   7.9563745624744E-09
(PID.TID 0000.0001) %MON dynstat_uvel_sd              =   2.2593316662130E-03
(PID.TID 0000.0001) %MON dynstat_uvel_del2            =   3.5943351374882E-06
(PID.TID 0000.0001) %MON dynstat_vvel_max             =   4.0057192751670E-02
(PID.TID 0000.0001) %MON dynstat_vvel_min             =  -2.4200259593968E-02
(PID.TID 0000.0001) %MON dynstat_vvel_mean            =   1.7325691170975E-07
(PID.TID 0000.0001) %MON dynstat_vvel_sd              =   9.5738913495731E-04
(PID.TID 0000.0001) %MON dynstat_vvel_del2            =   2.4218593840823E-06
(PID.TID 0000.0001) %MON dynstat_wvel_max             =   2.7271493843601E-03
(PID.TID 0000.0001) %MON dynstat_wvel_min             =  -3.1736633160492E-03
(PID.TID 0000.0001) %MON dynstat_wvel_mean            =   6.0454557885676E-10
(PID.TID 0000.0001) %MON dynstat_wvel_sd              =   4.6505770219096E-05
(PID.TID 0000.0001) %MON dynstat_wvel_del2            =   1.6853531545690E-07
(PID.TID 0000.0001) %MON dynstat_theta_max            =   1.2000000000000E+00
(PID.TID 0000.0001) %MON dynstat_theta_min            =  -1.0000000000000E+00
(PID.TID 0000.0001) %MON dynstat_theta_mean           =   5.6466888831578E-01
(PID.TID 0000.0001) %MON dynstat_theta_sd             =   8.4873454208669E-01
(PID.TID 0000.0001) %MON dynstat_theta_del2           =   6.6603899895611E-06
(PID.TID 0000.0001) %MON dynstat_salt_max             =   3.4700000000000E+01
(PID.TID 0000.0001) %MON dynstat_salt_min             =   3.4000000000000E+01
(PID.TID 0000.0001) %MON dynstat_salt_mean            =   3.4497781669917E+01
(PID.TID 0000.0001) %MON dynstat_salt_sd              =   2.7003569917396E-01
(PID.TID 0000.0001) %MON dynstat_salt_del2            =   2.6409045362945E-06
(PID.TID 0000.0001) %MON advcfl_uvel_max              =   7.6807339930273E-03
(PID.TID 0000.0001) %MON advcfl_vvel_max              =   4.0057192751670E-03
(PID.TID 0000.0001) %MON advcfl_wvel_max              =   1.5868316580246E-02
(PID.TID 0000.0001) %MON advcfl_W_hf_max              =   1.5868316580246E-02
(PID.TID 0000.0001) %MON pe_b_mean                    =  -6.8079526883703E-01
(PID.TID 0000.0001) %MON ke_max                       =   2.8041396118419E-03
(PID.TID 0000.0001) %MON ke_mean                      =   2.9625946965531E-06
(PID.TID 0000.0001) %MON ke_vol                       =   4.6183300295916E+12
(PID.TID 0000.0001) // =======================================================
(PID.TID 0000.0001) // End MONITOR dynamic field statistics
(PID.TID 0000.0001) // =======================================================
(PID.TID 0000.0001) // =======================================================
(PID.TID 0000.0001) // Begin OBCS MONITOR field statistics
(PID.TID 0000.0001) // =======================================================
(PID.TID 0000.0001) %MON obc_N_vVel_max               =   1.0767847250577E-07
(PID.TID 0000.0001) %MON obc_N_vVel_min               =   1.0767847250577E-07
(PID.TID 0000.0001) %MON obc_N_vVel_mean              =   1.0767847250577E-07
(PID.TID 0000.0001) %MON obc_N_vVel_sd                =   2.4485389275402E-14
(PID.TID 0000.0001) %MON obc_N_vVel_Int               =   7.1067791853808E+00
(PID.TID 0000.0001) // =======================================================
(PID.TID 0000.0001) // End OBCS MONITOR field statistics
(PID.TID 0000.0001) // =======================================================
 cg2d: Sum(rhs),rhsMax =   3.00394042197542E+00  4.53035636123713E+02
(PID.TID 0000.0001)      cg2d_init_res =   7.22665386646228E-06
(PID.TID 0000.0001)      cg2d_iters(min,last) =      -1      80
(PID.TID 0000.0001)      cg2d_last_res =   8.36240346737924E-12
(PID.TID 0000.0001) // =======================================================
(PID.TID 0000.0001) // Begin MONITOR dynamic field statistics
(PID.TID 0000.0001) // =======================================================
(PID.TID 0000.0001) %MON time_tsnumber                =                  1599
(PID.TID 0000.0001) %MON time_secondsf                =   1.5990000000000E+05
(PID.TID 0000.0001) %MON dynstat_eta_max              =   5.8000260619530E+00
(PID.TID 0000.0001) %MON dynstat_eta_min              =  -1.4163656275088E+01
(PID.TID 0000.0001) %MON dynstat_eta_mean             =  -2.5201704813840E+00
(PID.TID 0000.0001) %MON dynstat_eta_sd               =   4.9399543480909E+00
(PID.TID 0000.0001) %MON dynstat_eta_del2             =   1.9059945560136E-01
(PID.TID 0000.0001) %MON dynstat_uvel_max             =   1.7123416658082E-02
(PID.TID 0000.0001) %MON dynstat_uvel_min             =  -7.6945493715861E-02
(PID.TID 0000.0001) %MON dynstat_uvel_mean            =   7.9688164730456E-09
(PID.TID 0000.0001) %MON dynstat_uvel_sd              =   2.2638040082911E-03
(PID.TID 0000.0001) %MON dynstat_uvel_del2            =   3.6021317637296E-06
(PID.TID 0000.0001) %MON dynstat_vvel_max             =   4.0099656692236E-02
(PID.TID 0000.0001) %MON dynstat_vvel_min             =  -2.4260584783736E-02
(PID.TID 0000.0001) %MON dynstat_vvel_mean            =   1.7548258405723E-07
(PID.TID 0000.0001) %MON dynstat_vvel_sd              =   9.5910862890354E-04
(PID.TID 0000.0001) %MON dynstat_vvel_del2            =   2.4256930465020E-06
(PID.TID 0000.0001) %MON dynstat_wvel_max             =   2.7306687184873E-03
(PID.TID 0000.0001) %MON dynstat_wvel_min             =  -3.1743014016741E-03
(PID.TID 0000.0001) %MON dynstat_wvel_mean            =   6.0605627714556E-10
(PID.TID 0000.0001) %MON dynstat_wvel_sd              =   4.6571667575668E-05
(PID.TID 0000.0001) %MON dynstat_wvel_del2            =   1.6872821844374E-07
(PID.TID 0000.0001) %MON dynstat_theta_max            =   1.2000000000000E+00
(PID.TID 0000.0001) %MON dynstat_theta_min            =  -1.0000000000000E+00
(PID.TID 0000.0001) %MON dynstat_theta_mean           =   5.6466740236164E-01
(PID.TID 0000.0001) %MON dynstat_theta_sd             =   8.4873390809505E-01
(PID.TID 0000.0001) %MON dynstat_theta_del2           =   6.6707071248836E-06
(PID.TID 0000.0001) %MON dynstat_salt_max             =   3.4700000000000E+01
(PID.TID 0000.0001) %MON dynstat_salt_min             =   3.4000000000000E+01
(PID.TID 0000.0001) %MON dynstat_salt_mean            =   3.4497781075606E+01
(PID.TID 0000.0001) %MON dynstat_salt_sd              =   2.7003546407380E-01
(PID.TID 0000.0001) %MON dynstat_salt_del2            =   2.6450108063237E-06
(PID.TID 0000.0001) %MON advcfl_uvel_max              =   7.6945493715861E-03
(PID.TID 0000.0001) %MON advcfl_vvel_max              =   4.0099656692236E-03
(PID.TID 0000.0001) %MON advcfl_wvel_max              =   1.5871507008370E-02
(PID.TID 0000.0001) %MON advcfl_W_hf_max              =   1.5871507008370E-02
(PID.TID 0000.0001) %MON pe_b_mean                    =  -6.8079125850066E-01
(PID.TID 0000.0001) %MON ke_max                       =   2.8146877028956E-03
(PID.TID 0000.0001) %MON ke_mean                      =   2.9741667230296E-06
(PID.TID 0000.0001) %MON ke_vol                       =   4.6183301084099E+12
(PID.TID 0000.0001) // =======================================================
(PID.TID 0000.0001) // End MONITOR dynamic field statistics
(PID.TID 0000.0001) // =======================================================
(PID.TID 0000.0001) // =======================================================
(PID.TID 0000.0001) // Begin OBCS MONITOR field statistics
(PID.TID 0000.0001) // =======================================================
(PID.TID 0000.0001) %MON obc_N_vVel_max               =   1.0961875645249E-07
(PID.TID 0000.0001) %MON obc_N_vVel_min               =   1.0961875645249E-07
(PID.TID 0000.0001) %MON obc_N_vVel_mean              =   1.0961875645249E-07
(PID.TID 0000.0001) %MON obc_N_vVel_sd                =  -6.6737632581698E-28
(PID.TID 0000.0001) %MON obc_N_vVel_Int               =   7.2348379258647E+00
(PID.TID 0000.0001) // =======================================================
(PID.TID 0000.0001) // End OBCS MONITOR field statistics
(PID.TID 0000.0001) // =======================================================
 cg2d: Sum(rhs),rhsMax =   3.00392472139629E+00  4.53035611904593E+02
(PID.TID 0000.0001)      cg2d_init_res =   7.23661837189216E-06
(PID.TID 0000.0001)      cg2d_iters(min,last) =      -1      80
(PID.TID 0000.0001)      cg2d_last_res =   8.37651533047336E-12
(PID.TID 0000.0001) // =======================================================
(PID.TID 0000.0001) // Begin MONITOR dynamic field statistics
(PID.TID 0000.0001) // =======================================================
(PID.TID 0000.0001) %MON time_tsnumber                =                  1600
(PID.TID 0000.0001) %MON time_secondsf                =   1.6000000000000E+05
(PID.TID 0000.0001) %MON dynstat_eta_max              =   5.8000299107640E+00
(PID.TID 0000.0001) %MON dynstat_eta_min              =  -1.4163652657208E+01
(PID.TID 0000.0001) %MON dynstat_eta_mean             =  -2.5201571745798E+00
(PID.TID 0000.0001) %MON dynstat_eta_sd               =   4.9399504982584E+00
(PID.TID 0000.0001) %MON dynstat_eta_del2             =   1.9059949504169E-01
(PID.TID 0000.0001) %MON dynstat_uvel_max             =   1.7155434285335E-02
(PID.TID 0000.0001) %MON dynstat_uvel_min             =  -7.7083735707053E-02
(PID.TID 0000.0001) %MON dynstat_uvel_mean            =   7.9832488655720E-09
(PID.TID 0000.0001) %MON dynstat_uvel_sd              =   2.2682817811708E-03
(PID.TID 0000.0001) %MON dynstat_uvel_del2            =   3.6099416457721E-06
(PID.TID 0000.0001) %MON dynstat_vvel_max             =   4.0142109494652E-02
(PID.TID 0000.0001) %MON dynstat_vvel_min             =  -2.4320974484063E-02
(PID.TID 0000.0001) %MON dynstat_vvel_mean            =   1.7778702864557E-07
(PID.TID 0000.0001) %MON dynstat_vvel_sd              =   9.6083059151830E-04
(PID.TID 0000.0001) %MON dynstat_vvel_del2            =   2.4295309667320E-06
(PID.TID 0000.0001) %MON dynstat_wvel_max             =   2.7341859183343E-03
(PID.TID 0000.0001) %MON dynstat_wvel_min             =  -3.1749108068329E-03
(PID.TID 0000.0001) %MON dynstat_wvel_mean            =   6.0724786491623E-10
(PID.TID 0000.0001) %MON dynstat_wvel_sd              =   4.6637796307091E-05
(PID.TID 0000.0001) %MON dynstat_wvel_del2            =   1.6892214667355E-07
(PID.TID 0000.0001) %MON dynstat_theta_max            =   1.2000000000000E+00
(PID.TID 0000.0001) %MON dynstat_theta_min            =  -1.0000000000000E+00
(PID.TID 0000.0001) %MON dynstat_theta_mean           =   5.6466591407012E-01
(PID.TID 0000.0001) %MON dynstat_theta_sd             =   8.4873327332849E-01
(PID.TID 0000.0001) %MON dynstat_theta_del2           =   6.6810337931833E-06
(PID.TID 0000.0001) %MON dynstat_salt_max             =   3.4700000000000E+01
(PID.TID 0000.0001) %MON dynstat_salt_min             =   3.4000000000000E+01
(PID.TID 0000.0001) %MON dynstat_salt_mean            =   3.4497780480359E+01
(PID.TID 0000.0001) %MON dynstat_salt_sd              =   2.7003522871294E-01
(PID.TID 0000.0001) %MON dynstat_salt_del2            =   2.6491209436186E-06
(PID.TID 0000.0001) %MON advcfl_uvel_max              =   7.7083735707053E-03
(PID.TID 0000.0001) %MON advcfl_vvel_max              =   4.0142109494652E-03
(PID.TID 0000.0001) %MON advcfl_wvel_max              =   1.5874554034165E-02
(PID.TID 0000.0001) %MON advcfl_W_hf_max              =   1.5874554034165E-02
(PID.TID 0000.0001) %MON pe_b_mean                    =  -6.8078724228074E-01
(PID.TID 0000.0001) %MON ke_max                       =   2.8252576504938E-03
(PID.TID 0000.0001) %MON ke_mean                      =   2.9857757908569E-06
(PID.TID 0000.0001) %MON ke_vol                       =   4.6183301873406E+12
(PID.TID 0000.0001) // =======================================================
(PID.TID 0000.0001) // End MONITOR dynamic field statistics
(PID.TID 0000.0001) // =======================================================
(PID.TID 0000.0001) // =======================================================
(PID.TID 0000.0001) // Begin OBCS MONITOR field statistics
(PID.TID 0000.0001) // =======================================================
(PID.TID 0000.0001) %MON obc_N_vVel_max               =   1.1166081192553E-07
(PID.TID 0000.0001) %MON obc_N_vVel_min               =   1.1166081192552E-07
(PID.TID 0000.0001) %MON obc_N_vVel_mean              =   1.1166081192553E-07
(PID.TID 0000.0001) %MON obc_N_vVel_sd                =  -4.7804970856393E-28
(PID.TID 0000.0001) %MON obc_N_vVel_Int               =   7.3696135870848E+00
(PID.TID 0000.0001) // =======================================================
(PID.TID 0000.0001) // End OBCS MONITOR field statistics
(PID.TID 0000.0001) // =======================================================
 cg2d: Sum(rhs),rhsMax =   3.00390899842065E+00  4.53035587690300E+02
(PID.TID 0000.0001)      cg2d_init_res =   7.24659933169783E-06
(PID.TID 0000.0001)      cg2d_iters(min,last) =      -1      80
(PID.TID 0000.0001)      cg2d_last_res =   8.39064301594233E-12
(PID.TID 0000.0001) // =======================================================
(PID.TID 0000.0001) // Begin MONITOR dynamic field statistics
(PID.TID 0000.0001) // =======================================================
(PID.TID 0000.0001) %MON time_tsnumber                =                  1601
(PID.TID 0000.0001) %MON time_secondsf                =   1.6010000000000E+05
(PID.TID 0000.0001) %MON dynstat_eta_max              =   5.8000337633317E+00
(PID.TID 0000.0001) %MON dynstat_eta_min              =  -1.4163649041236E+01
(PID.TID 0000.0001) %MON dynstat_eta_mean             =  -2.5201438490142E+00
(PID.TID 0000.0001) %MON dynstat_eta_sd               =   4.9399466428928E+00
(PID.TID 0000.0001) %MON dynstat_eta_del2             =   1.9059953453570E-01
(PID.TID 0000.0001) %MON dynstat_uvel_max             =   1.7187471323858E-02
(PID.TID 0000.0001) %MON dynstat_uvel_min             =  -7.7222065809362E-02
(PID.TID 0000.0001) %MON dynstat_uvel_mean            =   7.9997909762921E-09
(PID.TID 0000.0001) %MON dynstat_uvel_sd              =   2.2727649800205E-03
(PID.TID 0000.0001) %MON dynstat_uvel_del2            =   3.6177647912205E-06
(PID.TID 0000.0001) %MON dynstat_vvel_max             =   4.0184551049584E-02
(PID.TID 0000.0001) %MON dynstat_vvel_min             =  -2.4381428448446E-02
(PID.TID 0000.0001) %MON dynstat_vvel_mean            =   1.8012524747772E-07
(PID.TID 0000.0001) %MON dynstat_vvel_sd              =   9.6255500553421E-04
(PID.TID 0000.0001) %MON dynstat_vvel_del2            =   2.4333730766513E-06
(PID.TID 0000.0001) %MON dynstat_wvel_max             =   2.7377009602103E-03
(PID.TID 0000.0001) %MON dynstat_wvel_min             =  -3.1754915291882E-03
(PID.TID 0000.0001) %MON dynstat_wvel_mean            =   6.0811530745312E-10
(PID.TID 0000.0001) %MON dynstat_wvel_sd              =   4.6704089064796E-05
(PID.TID 0000.0001) %MON dynstat_wvel_del2            =   1.6911691407029E-07
(PID.TID 0000.0001) %MON dynstat_theta_max            =   1.2000000000000E+00
(PID.TID 0000.0001) %MON dynstat_theta_min            =  -1.0000000000000E+00
(PID.TID 0000.0001) %MON dynstat_theta_mean           =   5.6466442344065E-01
(PID.TID 0000.0001) %MON dynstat_theta_sd             =   8.4873263778653E-01
(PID.TID 0000.0001) %MON dynstat_theta_del2           =   6.6913698828427E-06
(PID.TID 0000.0001) %MON dynstat_salt_max             =   3.4700000000000E+01
(PID.TID 0000.0001) %MON dynstat_salt_min             =   3.4000000000000E+01
(PID.TID 0000.0001) %MON dynstat_salt_mean            =   3.4497779884177E+01
(PID.TID 0000.0001) %MON dynstat_salt_sd              =   2.7003499309136E-01
(PID.TID 0000.0001) %MON dynstat_salt_del2            =   2.6532348938743E-06
(PID.TID 0000.0001) %MON advcfl_uvel_max              =   7.7222065809362E-03
(PID.TID 0000.0001) %MON advcfl_vvel_max              =   4.0184551049584E-03
(PID.TID 0000.0001) %MON advcfl_wvel_max              =   1.5877457645941E-02
(PID.TID 0000.0001) %MON advcfl_W_hf_max              =   1.5877457645941E-02
(PID.TID 0000.0001) %MON pe_b_mean                    =  -6.8078322017719E-01
(PID.TID 0000.0001) %MON ke_max                       =   2.8358493789735E-03
(PID.TID 0000.0001) %MON ke_mean                      =   2.9974219569668E-06
(PID.TID 0000.0001) %MON ke_vol                       =   4.6183302663830E+12
(PID.TID 0000.0001) // =======================================================
(PID.TID 0000.0001) // End MONITOR dynamic field statistics
(PID.TID 0000.0001) // =======================================================
(PID.TID 0000.0001) // =======================================================
(PID.TID 0000.0001) // Begin OBCS MONITOR field statistics
(PID.TID 0000.0001) // =======================================================
(PID.TID 0000.0001) %MON obc_N_vVel_max               =   1.1376314876467E-07
(PID.TID 0000.0001) %MON obc_N_vVel_min               =   1.1376314876467E-07
(PID.TID 0000.0001) %MON obc_N_vVel_mean              =   1.1376314876467E-07
(PID.TID 0000.0001) %MON obc_N_vVel_sd                =  -3.5025424191813E-28
(PID.TID 0000.0001) %MON obc_N_vVel_Int               =   7.5083678184685E+00
(PID.TID 0000.0001) // =======================================================
(PID.TID 0000.0001) // End OBCS MONITOR field statistics
(PID.TID 0000.0001) // =======================================================
 cg2d: Sum(rhs),rhsMax =   3.00389325309926E+00  4.53035563474019E+02
(PID.TID 0000.0001)      cg2d_init_res =   7.25660227299679E-06
(PID.TID 0000.0001)      cg2d_iters(min,last) =      -1      80
(PID.TID 0000.0001)      cg2d_last_res =   8.40475738937887E-12
(PID.TID 0000.0001) // =======================================================
(PID.TID 0000.0001) // Begin MONITOR dynamic field statistics
(PID.TID 0000.0001) // =======================================================
(PID.TID 0000.0001) %MON time_tsnumber                =                  1602
(PID.TID 0000.0001) %MON time_secondsf                =   1.6020000000000E+05
(PID.TID 0000.0001) %MON dynstat_eta_max              =   5.8000376195025E+00
(PID.TID 0000.0001) %MON dynstat_eta_min              =  -1.4163645427151E+01
(PID.TID 0000.0001) %MON dynstat_eta_mean             =  -2.5201305046919E+00
(PID.TID 0000.0001) %MON dynstat_eta_sd               =   4.9399427819526E+00
(PID.TID 0000.0001) %MON dynstat_eta_del2             =   1.9059957408313E-01
(PID.TID 0000.0001) %MON dynstat_uvel_max             =   1.7219527590371E-02
(PID.TID 0000.0001) %MON dynstat_uvel_min             =  -7.7360483921215E-02
(PID.TID 0000.0001) %MON dynstat_uvel_mean            =   8.0185008262770E-09
(PID.TID 0000.0001) %MON dynstat_uvel_sd              =   2.2772535998800E-03
(PID.TID 0000.0001) %MON dynstat_uvel_del2            =   3.6256012063111E-06
(PID.TID 0000.0001) %MON dynstat_vvel_max             =   4.0226981246111E-02
(PID.TID 0000.0001) %MON dynstat_vvel_min             =  -2.4441946430699E-02
(PID.TID 0000.0001) %MON dynstat_vvel_mean            =   1.8245177887113E-07
(PID.TID 0000.0001) %MON dynstat_vvel_sd              =   9.6428185174852E-04
(PID.TID 0000.0001) %MON dynstat_vvel_del2            =   2.4372193052090E-06
(PID.TID 0000.0001) %MON dynstat_wvel_max             =   2.7412138205131E-03
(PID.TID 0000.0001) %MON dynstat_wvel_min             =  -3.1760435689512E-03
(PID.TID 0000.0001) %MON dynstat_wvel_mean            =   6.0866128358041E-10
(PID.TID 0000.0001) %MON dynstat_wvel_sd              =   4.6770471656606E-05
(PID.TID 0000.0001) %MON dynstat_wvel_del2            =   1.6931231301158E-07
(PID.TID 0000.0001) %MON dynstat_theta_max            =   1.2000000000000E+00
(PID.TID 0000.0001) %MON dynstat_theta_min            =  -1.0000000000000E+00
(PID.TID 0000.0001) %MON dynstat_theta_mean           =   5.6466293047261E-01
(PID.TID 0000.0001) %MON dynstat_theta_sd             =   8.4873200146932E-01
(PID.TID 0000.0001) %MON dynstat_theta_del2           =   6.7017154694188E-06
(PID.TID 0000.0001) %MON dynstat_salt_max             =   3.4700000000000E+01
(PID.TID 0000.0001) %MON dynstat_salt_min             =   3.4000000000000E+01
(PID.TID 0000.0001) %MON dynstat_salt_mean            =   3.4497779287058E+01
(PID.TID 0000.0001) %MON dynstat_salt_sd              =   2.7003475720937E-01
(PID.TID 0000.0001) %MON dynstat_salt_del2            =   2.6573526774877E-06
(PID.TID 0000.0001) %MON advcfl_uvel_max              =   7.7360483921215E-03
(PID.TID 0000.0001) %MON advcfl_vvel_max              =   4.0226981246111E-03
(PID.TID 0000.0001) %MON advcfl_wvel_max              =   1.5880217844756E-02
(PID.TID 0000.0001) %MON advcfl_W_hf_max              =   1.5880217844756E-02
(PID.TID 0000.0001) %MON pe_b_mean                    =  -6.8077919218030E-01
(PID.TID 0000.0001) %MON ke_max                       =   2.8464628122951E-03
(PID.TID 0000.0001) %MON ke_mean                      =   3.0091052760385E-06
(PID.TID 0000.0001) %MON ke_vol                       =   4.6183303455369E+12
(PID.TID 0000.0001) // =======================================================
(PID.TID 0000.0001) // End MONITOR dynamic field statistics
(PID.TID 0000.0001) // =======================================================
(PID.TID 0000.0001) // =======================================================
(PID.TID 0000.0001) // Begin OBCS MONITOR field statistics
(PID.TID 0000.0001) // =======================================================
(PID.TID 0000.0001) %MON obc_N_vVel_max               =   1.1588314081296E-07
(PID.TID 0000.0001) %MON obc_N_vVel_min               =   1.1588314081296E-07
(PID.TID 0000.0001) %MON obc_N_vVel_mean              =   1.1588314081296E-07
(PID.TID 0000.0001) %MON obc_N_vVel_sd                =  -1.1517369216227E-27
(PID.TID 0000.0001) %MON obc_N_vVel_Int               =   7.6482872936554E+00
(PID.TID 0000.0001) // =======================================================
(PID.TID 0000.0001) // End OBCS MONITOR field statistics
(PID.TID 0000.0001) // =======================================================
 cg2d: Sum(rhs),rhsMax =   3.00387748542909E+00  4.53035539248442E+02
(PID.TID 0000.0001)      cg2d_init_res =   7.26662392576145E-06
(PID.TID 0000.0001)      cg2d_iters(min,last) =      -1      80
(PID.TID 0000.0001)      cg2d_last_res =   8.41888189950976E-12
(PID.TID 0000.0001) // =======================================================
(PID.TID 0000.0001) // Begin MONITOR dynamic field statistics
(PID.TID 0000.0001) // =======================================================
(PID.TID 0000.0001) %MON time_tsnumber                =                  1603
(PID.TID 0000.0001) %MON time_secondsf                =   1.6030000000000E+05
(PID.TID 0000.0001) %MON dynstat_eta_max              =   5.8000414791875E+00
(PID.TID 0000.0001) %MON dynstat_eta_min              =  -1.4163641814876E+01
(PID.TID 0000.0001) %MON dynstat_eta_mean             =  -2.5201171415697E+00
(PID.TID 0000.0001) %MON dynstat_eta_sd               =   4.9399389153820E+00
(PID.TID 0000.0001) %MON dynstat_eta_del2             =   1.9059961368371E-01
(PID.TID 0000.0001) %MON dynstat_uvel_max             =   1.7251602901130E-02
(PID.TID 0000.0001) %MON dynstat_uvel_min             =  -7.7498989933535E-02
(PID.TID 0000.0001) %MON dynstat_uvel_mean            =   8.0393666704556E-09
(PID.TID 0000.0001) %MON dynstat_uvel_sd              =   2.2817476358160E-03
(PID.TID 0000.0001) %MON dynstat_uvel_del2            =   3.6334508970743E-06
(PID.TID 0000.0001) %MON dynstat_vvel_max             =   4.0269399971985E-02
(PID.TID 0000.0001) %MON dynstat_vvel_min             =  -2.4502528184239E-02
(PID.TID 0000.0001) %MON dynstat_vvel_mean            =   1.8472175437233E-07
(PID.TID 0000.0001) %MON dynstat_vvel_sd              =   9.6601110987474E-04
(PID.TID 0000.0001) %MON dynstat_vvel_del2            =   2.4410695799209E-06
(PID.TID 0000.0001) %MON dynstat_wvel_max             =   2.7447244757566E-03
(PID.TID 0000.0001) %MON dynstat_wvel_min             =  -3.1765669288435E-03
(PID.TID 0000.0001) %MON dynstat_wvel_mean            =   6.0889609267560E-10
(PID.TID 0000.0001) %MON dynstat_wvel_sd              =   4.6836866625900E-05
(PID.TID 0000.0001) %MON dynstat_wvel_del2            =   1.6950812769506E-07
(PID.TID 0000.0001) %MON dynstat_theta_max            =   1.2000000000000E+00
(PID.TID 0000.0001) %MON dynstat_theta_min            =  -1.0000000000000E+00
(PID.TID 0000.0001) %MON dynstat_theta_mean           =   5.6466143516536E-01
(PID.TID 0000.0001) %MON dynstat_theta_sd             =   8.4873136437762E-01
(PID.TID 0000.0001) %MON dynstat_theta_del2           =   6.7120706351528E-06
(PID.TID 0000.0001) %MON dynstat_salt_max             =   3.4700000000000E+01
(PID.TID 0000.0001) %MON dynstat_salt_min             =   3.4000000000000E+01
(PID.TID 0000.0001) %MON dynstat_salt_mean            =   3.4497778689004E+01
(PID.TID 0000.0001) %MON dynstat_salt_sd              =   2.7003452106724E-01
(PID.TID 0000.0001) %MON dynstat_salt_del2            =   2.6614743520637E-06
(PID.TID 0000.0001) %MON advcfl_uvel_max              =   7.7498989933535E-03
(PID.TID 0000.0001) %MON advcfl_vvel_max              =   4.0269399971985E-03
(PID.TID 0000.0001) %MON advcfl_wvel_max              =   1.5882834644217E-02
(PID.TID 0000.0001) %MON advcfl_W_hf_max              =   1.5882834644217E-02
(PID.TID 0000.0001) %MON pe_b_mean                    =  -6.8077515827077E-01
(PID.TID 0000.0001) %MON ke_max                       =   2.8570978740476E-03
(PID.TID 0000.0001) %MON ke_mean                      =   3.0208258016483E-06
(PID.TID 0000.0001) %MON ke_vol                       =   4.6183304248021E+12
(PID.TID 0000.0001) // =======================================================
(PID.TID 0000.0001) // End MONITOR dynamic field statistics
(PID.TID 0000.0001) // =======================================================
(PID.TID 0000.0001) // =======================================================
(PID.TID 0000.0001) // Begin OBCS MONITOR field statistics
(PID.TID 0000.0001) // =======================================================
(PID.TID 0000.0001) %MON obc_N_vVel_max               =   1.1797800074593E-07
(PID.TID 0000.0001) %MON obc_N_vVel_min               =   1.1797800074593E-07
(PID.TID 0000.0001) %MON obc_N_vVel_mean              =   1.1797800074593E-07
(PID.TID 0000.0001) %MON obc_N_vVel_sd                =  -8.5985838669090E-28
(PID.TID 0000.0001) %MON obc_N_vVel_Int               =   7.7865480492316E+00
(PID.TID 0000.0001) // =======================================================
(PID.TID 0000.0001) // End OBCS MONITOR field statistics
(PID.TID 0000.0001) // =======================================================
 cg2d: Sum(rhs),rhsMax =   3.00386169535284E+00  4.53035515005912E+02
(PID.TID 0000.0001)      cg2d_init_res =   7.27666553138534E-06
(PID.TID 0000.0001)      cg2d_iters(min,last) =      -1      80
(PID.TID 0000.0001)      cg2d_last_res =   8.43301537557536E-12
(PID.TID 0000.0001) // =======================================================
(PID.TID 0000.0001) // Begin MONITOR dynamic field statistics
(PID.TID 0000.0001) // =======================================================
(PID.TID 0000.0001) %MON time_tsnumber                =                  1604
(PID.TID 0000.0001) %MON time_secondsf                =   1.6040000000000E+05
(PID.TID 0000.0001) %MON dynstat_eta_max              =   5.8000453423661E+00
(PID.TID 0000.0001) %MON dynstat_eta_min              =  -1.4163638204237E+01
(PID.TID 0000.0001) %MON dynstat_eta_mean             =  -2.5201037595569E+00
(PID.TID 0000.0001) %MON dynstat_eta_sd               =   4.9399350431129E+00
(PID.TID 0000.0001) %MON dynstat_eta_del2             =   1.9059965333727E-01
(PID.TID 0000.0001) %MON dynstat_uvel_max             =   1.7283697071927E-02
(PID.TID 0000.0001) %MON dynstat_uvel_min             =  -7.7637583729803E-02
(PID.TID 0000.0001) %MON dynstat_uvel_mean            =   8.0623033818372E-09
(PID.TID 0000.0001) %MON dynstat_uvel_sd              =   2.2862470829090E-03
(PID.TID 0000.0001) %MON dynstat_uvel_del2            =   3.6413138694364E-06
(PID.TID 0000.0001) %MON dynstat_vvel_max             =   4.0311807113910E-02
(PID.TID 0000.0001) %MON dynstat_vvel_min             =  -2.4563173461992E-02
(PID.TID 0000.0001) %MON dynstat_vvel_mean            =   1.8689194178675E-07
(PID.TID 0000.0001) %MON dynstat_vvel_sd              =   9.6774275961972E-04
(PID.TID 0000.0001) %MON dynstat_vvel_del2            =   2.4449238304801E-06
(PID.TID 0000.0001) %MON dynstat_wvel_max             =   2.7482329025153E-03
(PID.TID 0000.0001) %MON dynstat_wvel_min             =  -3.1770616140506E-03
(PID.TID 0000.0001) %MON dynstat_wvel_mean            =   6.0883686994949E-10
(PID.TID 0000.0001) %MON dynstat_wvel_sd              =   4.6903196728279E-05
(PID.TID 0000.0001) %MON dynstat_wvel_del2            =   1.6970414375893E-07
(PID.TID 0000.0001) %MON dynstat_theta_max            =   1.2000000000000E+00
(PID.TID 0000.0001) %MON dynstat_theta_min            =  -1.0000000000000E+00
(PID.TID 0000.0001) %MON dynstat_theta_mean           =   5.6465993751809E-01
(PID.TID 0000.0001) %MON dynstat_theta_sd             =   8.4873072651203E-01
(PID.TID 0000.0001) %MON dynstat_theta_del2           =   6.7224298459433E-06
(PID.TID 0000.0001) %MON dynstat_salt_max             =   3.4700000000000E+01
(PID.TID 0000.0001) %MON dynstat_salt_min             =   3.4000000000000E+01
(PID.TID 0000.0001) %MON dynstat_salt_mean            =   3.4497778090012E+01
(PID.TID 0000.0001) %MON dynstat_salt_sd              =   2.7003428466539E-01
(PID.TID 0000.0001) %MON dynstat_salt_del2            =   2.6655999108812E-06
(PID.TID 0000.0001) %MON advcfl_uvel_max              =   7.7637583729803E-03
(PID.TID 0000.0001) %MON advcfl_vvel_max              =   4.0311807113910E-03
(PID.TID 0000.0001) %MON advcfl_wvel_max              =   1.5885308070253E-02
(PID.TID 0000.0001) %MON advcfl_W_hf_max              =   1.5885308070253E-02
(PID.TID 0000.0001) %MON pe_b_mean                    =  -6.8077111841997E-01
(PID.TID 0000.0001) %MON ke_max                       =   2.8677544875051E-03
(PID.TID 0000.0001) %MON ke_mean                      =   3.0325835872736E-06
(PID.TID 0000.0001) %MON ke_vol                       =   4.6183305041791E+12
(PID.TID 0000.0001) // =======================================================
(PID.TID 0000.0001) // End MONITOR dynamic field statistics
(PID.TID 0000.0001) // =======================================================
(PID.TID 0000.0001) // =======================================================
(PID.TID 0000.0001) // Begin OBCS MONITOR field statistics
(PID.TID 0000.0001) // =======================================================
(PID.TID 0000.0001) %MON obc_N_vVel_max               =   1.2000583622203E-07
(PID.TID 0000.0001) %MON obc_N_vVel_min               =   1.2000583622203E-07
(PID.TID 0000.0001) %MON obc_N_vVel_mean              =   1.2000583622203E-07
(PID.TID 0000.0001) %MON obc_N_vVel_sd                =   2.8697923009353E-14
(PID.TID 0000.0001) %MON obc_N_vVel_Int               =   7.9203851906540E+00
(PID.TID 0000.0001) // =======================================================
(PID.TID 0000.0001) // End OBCS MONITOR field statistics
(PID.TID 0000.0001) // =======================================================
 cg2d: Sum(rhs),rhsMax =   3.00384588276224E+00  4.53035490738605E+02
(PID.TID 0000.0001)      cg2d_init_res =   7.28675200408492E-06
(PID.TID 0000.0001)      cg2d_iters(min,last) =      -1      80
(PID.TID 0000.0001)      cg2d_last_res =   8.44719587746086E-12
(PID.TID 0000.0001) // =======================================================
(PID.TID 0000.0001) // Begin MONITOR dynamic field statistics
(PID.TID 0000.0001) // =======================================================
(PID.TID 0000.0001) %MON time_tsnumber                =                  1605
(PID.TID 0000.0001) %MON time_secondsf                =   1.6050000000000E+05
(PID.TID 0000.0001) %MON dynstat_eta_max              =   5.8000492090718E+00
(PID.TID 0000.0001) %MON dynstat_eta_min              =  -1.4163634594992E+01
(PID.TID 0000.0001) %MON dynstat_eta_mean             =  -2.5200903585191E+00
(PID.TID 0000.0001) %MON dynstat_eta_sd               =   4.9399311650630E+00
(PID.TID 0000.0001) %MON dynstat_eta_del2             =   1.9059969304354E-01
(PID.TID 0000.0001) %MON dynstat_uvel_max             =   1.7315809917551E-02
(PID.TID 0000.0001) %MON dynstat_uvel_min             =  -7.7776265185680E-02
(PID.TID 0000.0001) %MON dynstat_uvel_mean            =   8.0871600076396E-09
(PID.TID 0000.0001) %MON dynstat_uvel_sd              =   2.2907519362773E-03
(PID.TID 0000.0001) %MON dynstat_uvel_del2            =   3.6491901333266E-06
(PID.TID 0000.0001) %MON dynstat_vvel_max             =   4.0354202557491E-02
(PID.TID 0000.0001) %MON dynstat_vvel_min             =  -2.4623882015984E-02
(PID.TID 0000.0001) %MON dynstat_vvel_mean            =   1.8892174903399E-07
(PID.TID 0000.0001) %MON dynstat_vvel_sd              =   9.6947678144630E-04
(PID.TID 0000.0001) %MON dynstat_vvel_del2            =   2.4487819911208E-06
(PID.TID 0000.0001) %MON dynstat_wvel_max             =   2.7517390774603E-03
(PID.TID 0000.0001) %MON dynstat_wvel_min             =  -3.1775276322851E-03
(PID.TID 0000.0001) %MON dynstat_wvel_mean            =   6.0850769151225E-10
(PID.TID 0000.0001) %MON dynstat_wvel_sd              =   4.6969388326956E-05
(PID.TID 0000.0001) %MON dynstat_wvel_del2            =   1.6990015743328E-07
(PID.TID 0000.0001) %MON dynstat_theta_max            =   1.2000000000000E+00
(PID.TID 0000.0001) %MON dynstat_theta_min            =  -1.0000000000000E+00
(PID.TID 0000.0001) %MON dynstat_theta_mean           =   5.6465843753005E-01
(PID.TID 0000.0001) %MON dynstat_theta_sd             =   8.4873008787271E-01
(PID.TID 0000.0001) %MON dynstat_theta_del2           =   6.7327875081846E-06
(PID.TID 0000.0001) %MON dynstat_salt_max             =   3.4700000000000E+01
(PID.TID 0000.0001) %MON dynstat_salt_min             =   3.4000000000000E+01
(PID.TID 0000.0001) %MON dynstat_salt_mean            =   3.4497777490083E+01
(PID.TID 0000.0001) %MON dynstat_salt_sd              =   2.7003404800441E-01
(PID.TID 0000.0001) %MON dynstat_salt_del2            =   2.6697294622753E-06
(PID.TID 0000.0001) %MON advcfl_uvel_max              =   7.7776265185680E-03
(PID.TID 0000.0001) %MON advcfl_vvel_max              =   4.0354202557491E-03
(PID.TID 0000.0001) %MON advcfl_wvel_max              =   1.5887638161425E-02
(PID.TID 0000.0001) %MON advcfl_W_hf_max              =   1.5887638161425E-02
(PID.TID 0000.0001) %MON pe_b_mean                    =  -6.8076707259102E-01
(PID.TID 0000.0001) %MON ke_max                       =   2.8784325756418E-03
(PID.TID 0000.0001) %MON ke_mean                      =   3.0443786870862E-06
(PID.TID 0000.0001) %MON ke_vol                       =   4.6183305836682E+12
(PID.TID 0000.0001) // =======================================================
(PID.TID 0000.0001) // End MONITOR dynamic field statistics
(PID.TID 0000.0001) // =======================================================
(PID.TID 0000.0001) // =======================================================
(PID.TID 0000.0001) // Begin OBCS MONITOR field statistics
(PID.TID 0000.0001) // =======================================================
(PID.TID 0000.0001) %MON obc_N_vVel_max               =   1.2192662105347E-07
(PID.TID 0000.0001) %MON obc_N_vVel_min               =   1.2192662105346E-07
(PID.TID 0000.0001) %MON obc_N_vVel_mean              =   1.2192662105346E-07
(PID.TID 0000.0001) %MON obc_N_vVel_sd                =   3.3137507149266E-14
(PID.TID 0000.0001) %MON obc_N_vVel_Int               =   8.0471569895286E+00
(PID.TID 0000.0001) // =======================================================
(PID.TID 0000.0001) // End OBCS MONITOR field statistics
(PID.TID 0000.0001) // =======================================================
 cg2d: Sum(rhs),rhsMax =   3.00383004750036E+00  4.53035466438679E+02
(PID.TID 0000.0001)      cg2d_init_res =   7.29689656941855E-06
(PID.TID 0000.0001)      cg2d_iters(min,last) =      -1      80
(PID.TID 0000.0001)      cg2d_last_res =   8.46144627674315E-12
(PID.TID 0000.0001) // =======================================================
(PID.TID 0000.0001) // Begin MONITOR dynamic field statistics
(PID.TID 0000.0001) // =======================================================
(PID.TID 0000.0001) %MON time_tsnumber                =                  1606
(PID.TID 0000.0001) %MON time_secondsf                =   1.6060000000000E+05
(PID.TID 0000.0001) %MON dynstat_eta_max              =   5.8000530793983E+00
(PID.TID 0000.0001) %MON dynstat_eta_min              =  -1.4163630986835E+01
(PID.TID 0000.0001) %MON dynstat_eta_mean             =  -2.5200769382812E+00
(PID.TID 0000.0001) %MON dynstat_eta_sd               =   4.9399272811418E+00
(PID.TID 0000.0001) %MON dynstat_eta_del2             =   1.9059973280241E-01
(PID.TID 0000.0001) %MON dynstat_uvel_max             =   1.7347941252417E-02
(PID.TID 0000.0001) %MON dynstat_uvel_min             =  -7.7915034170093E-02
(PID.TID 0000.0001) %MON dynstat_uvel_mean            =   8.1137240542852E-09
(PID.TID 0000.0001) %MON dynstat_uvel_sd              =   2.2952621909762E-03
(PID.TID 0000.0001) %MON dynstat_uvel_del2            =   3.6570797001232E-06
(PID.TID 0000.0001) %MON dynstat_vvel_max             =   4.0396586187380E-02
(PID.TID 0000.0001) %MON dynstat_vvel_min             =  -2.4684653597362E-02
(PID.TID 0000.0001) %MON dynstat_vvel_mean            =   1.9077415468249E-07
(PID.TID 0000.0001) %MON dynstat_vvel_sd              =   9.7121315750664E-04
(PID.TID 0000.0001) %MON dynstat_vvel_del2            =   2.4526440030912E-06
(PID.TID 0000.0001) %MON dynstat_wvel_max             =   2.7552429773289E-03
(PID.TID 0000.0001) %MON dynstat_wvel_min             =  -3.1779649937574E-03
(PID.TID 0000.0001) %MON dynstat_wvel_mean            =   6.0793821756752E-10
(PID.TID 0000.0001) %MON dynstat_wvel_sd              =   4.7035374433540E-05
(PID.TID 0000.0001) %MON dynstat_wvel_del2            =   1.7009598107632E-07
(PID.TID 0000.0001) %MON dynstat_theta_max            =   1.2000000000000E+00
(PID.TID 0000.0001) %MON dynstat_theta_min            =  -1.0000000000000E+00
(PID.TID 0000.0001) %MON dynstat_theta_mean           =   5.6465693520048E-01
(PID.TID 0000.0001) %MON dynstat_theta_sd             =   8.4872944846200E-01
(PID.TID 0000.0001) %MON dynstat_theta_del2           =   6.7431551200177E-06
(PID.TID 0000.0001) %MON dynstat_salt_max             =   3.4700000000000E+01
(PID.TID 0000.0001) %MON dynstat_salt_min             =   3.4000000000000E+01
(PID.TID 0000.0001) %MON dynstat_salt_mean            =   3.4497776889216E+01
(PID.TID 0000.0001) %MON dynstat_salt_sd              =   2.7003381108469E-01
(PID.TID 0000.0001) %MON dynstat_salt_del2            =   2.6738629698536E-06
(PID.TID 0000.0001) %MON advcfl_uvel_max              =   7.7915034170093E-03
(PID.TID 0000.0001) %MON advcfl_vvel_max              =   4.0396586187380E-03
(PID.TID 0000.0001) %MON advcfl_wvel_max              =   1.5889824968787E-02
(PID.TID 0000.0001) %MON advcfl_W_hf_max              =   1.5889824968787E-02
(PID.TID 0000.0001) %MON pe_b_mean                    =  -6.8076302073947E-01
(PID.TID 0000.0001) %MON ke_max                       =   2.8891320612586E-03
(PID.TID 0000.0001) %MON ke_mean                      =   3.0562111566376E-06
(PID.TID 0000.0001) %MON ke_vol                       =   4.6183306632704E+12
(PID.TID 0000.0001) // =======================================================
(PID.TID 0000.0001) // End MONITOR dynamic field statistics
(PID.TID 0000.0001) // =======================================================
(PID.TID 0000.0001) // =======================================================
(PID.TID 0000.0001) // Begin OBCS MONITOR field statistics
(PID.TID 0000.0001) // =======================================================
(PID.TID 0000.0001) %MON obc_N_vVel_max               =   1.2370314221903E-07
(PID.TID 0000.0001) %MON obc_N_vVel_min               =   1.2370314221903E-07
(PID.TID 0000.0001) %MON obc_N_vVel_mean              =   1.2370314221903E-07
(PID.TID 0000.0001) %MON obc_N_vVel_sd                =  -2.4612460242896E-28
(PID.TID 0000.0001) %MON obc_N_vVel_Int               =   8.1644073864559E+00
(PID.TID 0000.0001) // =======================================================
(PID.TID 0000.0001) // End OBCS MONITOR field statistics
(PID.TID 0000.0001) // =======================================================
 cg2d: Sum(rhs),rhsMax =   3.00381418936479E+00  4.53035442098437E+02
(PID.TID 0000.0001)      cg2d_init_res =   7.30698379263888E-06
(PID.TID 0000.0001)      cg2d_iters(min,last) =      -1      80
(PID.TID 0000.0001)      cg2d_last_res =   8.47566913519360E-12
(PID.TID 0000.0001) // =======================================================
(PID.TID 0000.0001) // Begin MONITOR dynamic field statistics
(PID.TID 0000.0001) // =======================================================
(PID.TID 0000.0001) %MON time_tsnumber                =                  1607
(PID.TID 0000.0001) %MON time_secondsf                =   1.6070000000000E+05
(PID.TID 0000.0001) %MON dynstat_eta_max              =   5.8000569534836E+00
(PID.TID 0000.0001) %MON dynstat_eta_min              =  -1.4163627379400E+01
(PID.TID 0000.0001) %MON dynstat_eta_mean             =  -2.5200634986304E+00
(PID.TID 0000.0001) %MON dynstat_eta_sd               =   4.9399233912442E+00
(PID.TID 0000.0001) %MON dynstat_eta_del2             =   1.9059977261323E-01
(PID.TID 0000.0001) %MON dynstat_uvel_max             =   1.7380090889924E-02
(PID.TID 0000.0001) %MON dynstat_uvel_min             =  -7.8053890545601E-02
(PID.TID 0000.0001) %MON dynstat_uvel_mean            =   8.1417489106174E-09
(PID.TID 0000.0001) %MON dynstat_uvel_sd              =   2.2997778421282E-03
(PID.TID 0000.0001) %MON dynstat_uvel_del2            =   3.6649825755271E-06
(PID.TID 0000.0001) %MON dynstat_vvel_max             =   4.0438957887399E-02
(PID.TID 0000.0001) %MON dynstat_vvel_min             =  -2.4745487956231E-02
(PID.TID 0000.0001) %MON dynstat_vvel_mean            =   1.9241656439988E-07
(PID.TID 0000.0001) %MON dynstat_vvel_sd              =   9.7295187354378E-04
(PID.TID 0000.0001) %MON dynstat_vvel_del2            =   2.4565098187614E-06
(PID.TID 0000.0001) %MON dynstat_wvel_max             =   2.7587445789745E-03
(PID.TID 0000.0001) %MON dynstat_wvel_min             =  -3.1783737111712E-03
(PID.TID 0000.0001) %MON dynstat_wvel_mean            =   6.0716415351807E-10
(PID.TID 0000.0001) %MON dynstat_wvel_sd              =   4.7101097775731E-05
(PID.TID 0000.0001) %MON dynstat_wvel_del2            =   1.7029145423436E-07
(PID.TID 0000.0001) %MON dynstat_theta_max            =   1.2000000000000E+00
(PID.TID 0000.0001) %MON dynstat_theta_min            =  -1.0000000000000E+00
(PID.TID 0000.0001) %MON dynstat_theta_mean           =   5.6465543052852E-01
(PID.TID 0000.0001) %MON dynstat_theta_sd             =   8.4872880828111E-01
(PID.TID 0000.0001) %MON dynstat_theta_del2           =   6.7535326948625E-06
(PID.TID 0000.0001) %MON dynstat_salt_max             =   3.4700000000000E+01
(PID.TID 0000.0001) %MON dynstat_salt_min             =   3.4000000000000E+01
(PID.TID 0000.0001) %MON dynstat_salt_mean            =   3.4497776287412E+01
(PID.TID 0000.0001) %MON dynstat_salt_sd              =   2.7003357390700E-01
(PID.TID 0000.0001) %MON dynstat_salt_del2            =   2.6780004137022E-06
(PID.TID 0000.0001) %MON advcfl_uvel_max              =   7.8053890545601E-03
(PID.TID 0000.0001) %MON advcfl_vvel_max              =   4.0438957887399E-03
(PID.TID 0000.0001) %MON advcfl_wvel_max              =   1.5891868555856E-02
(PID.TID 0000.0001) %MON advcfl_W_hf_max              =   1.5891868555856E-02
(PID.TID 0000.0001) %MON pe_b_mean                    =  -6.8075896281420E-01
(PID.TID 0000.0001) %MON ke_max                       =   2.8998528670966E-03
(PID.TID 0000.0001) %MON ke_mean                      =   3.0680810550166E-06
(PID.TID 0000.0001) %MON ke_vol                       =   4.6183307429866E+12
(PID.TID 0000.0001) // =======================================================
(PID.TID 0000.0001) // End MONITOR dynamic field statistics
(PID.TID 0000.0001) // =======================================================
(PID.TID 0000.0001) // =======================================================
(PID.TID 0000.0001) // Begin OBCS MONITOR field statistics
(PID.TID 0000.0001) // =======================================================
(PID.TID 0000.0001) %MON obc_N_vVel_max               =   1.2530183154584E-07
(PID.TID 0000.0001) %MON obc_N_vVel_min               =   1.2530183154584E-07
(PID.TID 0000.0001) %MON obc_N_vVel_mean              =   1.2530183154584E-07
(PID.TID 0000.0001) %MON obc_N_vVel_sd                =  -1.0728508311006E-28
(PID.TID 0000.0001) %MON obc_N_vVel_Int               =   8.2699208820256E+00
(PID.TID 0000.0001) // =======================================================
(PID.TID 0000.0001) // End OBCS MONITOR field statistics
(PID.TID 0000.0001) // =======================================================
 cg2d: Sum(rhs),rhsMax =   3.00379830811286E+00  4.53035417710495E+02
(PID.TID 0000.0001)      cg2d_init_res =   7.31708193622008E-06
(PID.TID 0000.0001)      cg2d_iters(min,last) =      -1      80
(PID.TID 0000.0001)      cg2d_last_res =   8.48992935385581E-12
(PID.TID 0000.0001) // =======================================================
(PID.TID 0000.0001) // Begin MONITOR dynamic field statistics
(PID.TID 0000.0001) // =======================================================
(PID.TID 0000.0001) %MON time_tsnumber                =                  1608
(PID.TID 0000.0001) %MON time_secondsf                =   1.6080000000000E+05
(PID.TID 0000.0001) %MON dynstat_eta_max              =   5.8000608315111E+00
(PID.TID 0000.0001) %MON dynstat_eta_min              =  -1.4163623772264E+01
(PID.TID 0000.0001) %MON dynstat_eta_mean             =  -2.5200500393222E+00
(PID.TID 0000.0001) %MON dynstat_eta_sd               =   4.9399194952635E+00
(PID.TID 0000.0001) %MON dynstat_eta_del2             =   1.9059981247563E-01
(PID.TID 0000.0001) %MON dynstat_uvel_max             =   1.7412258642874E-02
(PID.TID 0000.0001) %MON dynstat_uvel_min             =  -7.8192834166423E-02
(PID.TID 0000.0001) %MON dynstat_uvel_mean            =   8.1709660156483E-09
(PID.TID 0000.0001) %MON dynstat_uvel_sd              =   2.3042988848499E-03
(PID.TID 0000.0001) %MON dynstat_uvel_del2            =   3.6728987644012E-06
(PID.TID 0000.0001) %MON dynstat_vvel_max             =   4.0481317540486E-02
(PID.TID 0000.0001) %MON dynstat_vvel_min             =  -2.4806384840684E-02
(PID.TID 0000.0001) %MON dynstat_vvel_mean            =   1.9382151649169E-07
(PID.TID 0000.0001) %MON dynstat_vvel_sd              =   9.7469291904109E-04
(PID.TID 0000.0001) %MON dynstat_vvel_del2            =   2.4603794018649E-06
(PID.TID 0000.0001) %MON dynstat_wvel_max             =   2.7622438593275E-03
(PID.TID 0000.0001) %MON dynstat_wvel_min             =  -3.1787537997931E-03
(PID.TID 0000.0001) %MON dynstat_wvel_mean            =   6.0622492113439E-10
(PID.TID 0000.0001) %MON dynstat_wvel_sd              =   4.7166512842521E-05
(PID.TID 0000.0001) %MON dynstat_wvel_del2            =   1.7048644377725E-07
(PID.TID 0000.0001) %MON dynstat_theta_max            =   1.2000000000000E+00
(PID.TID 0000.0001) %MON dynstat_theta_min            =  -1.0000000000000E+00
(PID.TID 0000.0001) %MON dynstat_theta_mean           =   5.6465392351331E-01
(PID.TID 0000.0001) %MON dynstat_theta_sd             =   8.4872816733152E-01
(PID.TID 0000.0001) %MON dynstat_theta_del2           =   6.7639202292819E-06
(PID.TID 0000.0001) %MON dynstat_salt_max             =   3.4700000000000E+01
(PID.TID 0000.0001) %MON dynstat_salt_min             =   3.4000000000000E+01
(PID.TID 0000.0001) %MON dynstat_salt_mean            =   3.4497775684669E+01
(PID.TID 0000.0001) %MON dynstat_salt_sd              =   2.7003333647174E-01
(PID.TID 0000.0001) %MON dynstat_salt_del2            =   2.6821417973713E-06
(PID.TID 0000.0001) %MON advcfl_uvel_max              =   7.8192834166423E-03
(PID.TID 0000.0001) %MON advcfl_vvel_max              =   4.0481317540486E-03
(PID.TID 0000.0001) %MON advcfl_wvel_max              =   1.5893768998966E-02
(PID.TID 0000.0001) %MON advcfl_W_hf_max              =   1.5893768998966E-02
(PID.TID 0000.0001) %MON pe_b_mean                    =  -6.8075489875863E-01
(PID.TID 0000.0001) %MON ke_max                       =   2.9105949154649E-03
(PID.TID 0000.0001) %MON ke_mean                      =   3.0799884448626E-06
(PID.TID 0000.0001) %MON ke_vol                       =   4.6183308228181E+12
(PID.TID 0000.0001) // =======================================================
(PID.TID 0000.0001) // End MONITOR dynamic field statistics
(PID.TID 0000.0001) // =======================================================
(PID.TID 0000.0001) // =======================================================
(PID.TID 0000.0001) // Begin OBCS MONITOR field statistics
(PID.TID 0000.0001) // =======================================================
(PID.TID 0000.0001) %MON obc_N_vVel_max               =   1.2669352644145E-07
(PID.TID 0000.0001) %MON obc_N_vVel_min               =   1.2669352644145E-07
(PID.TID 0000.0001) %MON obc_N_vVel_mean              =   1.2669352644145E-07
(PID.TID 0000.0001) %MON obc_N_vVel_sd                =  -5.8060162624266E-28
(PID.TID 0000.0001) %MON obc_N_vVel_Int               =   8.3617727451358E+00
(PID.TID 0000.0001) // =======================================================
(PID.TID 0000.0001) // End OBCS MONITOR field statistics
(PID.TID 0000.0001) // =======================================================
 cg2d: Sum(rhs),rhsMax =   3.00378240346667E+00  4.53035393267919E+02
(PID.TID 0000.0001)      cg2d_init_res =   7.32719130562377E-06
(PID.TID 0000.0001)      cg2d_iters(min,last) =      -1      80
(PID.TID 0000.0001)      cg2d_last_res =   8.50423396658918E-12
(PID.TID 0000.0001) // =======================================================
(PID.TID 0000.0001) // Begin MONITOR dynamic field statistics
(PID.TID 0000.0001) // =======================================================
(PID.TID 0000.0001) %MON time_tsnumber                =                  1609
(PID.TID 0000.0001) %MON time_secondsf                =   1.6090000000000E+05
(PID.TID 0000.0001) %MON dynstat_eta_max              =   5.8000647136853E+00
(PID.TID 0000.0001) %MON dynstat_eta_min              =  -1.4163620164964E+01
(PID.TID 0000.0001) %MON dynstat_eta_mean             =  -2.5200365600848E+00
(PID.TID 0000.0001) %MON dynstat_eta_sd               =   4.9399155930890E+00
(PID.TID 0000.0001) %MON dynstat_eta_del2             =   1.9059985238926E-01
(PID.TID 0000.0001) %MON dynstat_uvel_max             =   1.7444444323402E-02
(PID.TID 0000.0001) %MON dynstat_uvel_min             =  -7.8331864879143E-02
(PID.TID 0000.0001) %MON dynstat_uvel_mean            =   8.2010953915665E-09
(PID.TID 0000.0001) %MON dynstat_uvel_sd              =   2.3088253142609E-03
(PID.TID 0000.0001) %MON dynstat_uvel_del2            =   3.6808282713973E-06
(PID.TID 0000.0001) %MON dynstat_vvel_max             =   4.0523665028800E-02
(PID.TID 0000.0001) %MON dynstat_vvel_min             =  -2.4867343996895E-02
(PID.TID 0000.0001) %MON dynstat_vvel_mean            =   1.9496726955973E-07
(PID.TID 0000.0001) %MON dynstat_vvel_sd              =   9.7643628775948E-04
(PID.TID 0000.0001) %MON dynstat_vvel_del2            =   2.4642527295139E-06
(PID.TID 0000.0001) %MON dynstat_wvel_max             =   2.7657407954154E-03
(PID.TID 0000.0001) %MON dynstat_wvel_min             =  -3.1791052775040E-03
(PID.TID 0000.0001) %MON dynstat_wvel_mean            =   6.0516359130374E-10
(PID.TID 0000.0001) %MON dynstat_wvel_sd              =   4.7231587753393E-05
(PID.TID 0000.0001) %MON dynstat_wvel_del2            =   1.7068084879686E-07
(PID.TID 0000.0001) %MON dynstat_theta_max            =   1.2000000000000E+00
(PID.TID 0000.0001) %MON dynstat_theta_min            =  -1.0000000000000E+00
(PID.TID 0000.0001) %MON dynstat_theta_mean           =   5.6465241415386E-01
(PID.TID 0000.0001) %MON dynstat_theta_sd             =   8.4872752561420E-01
(PID.TID 0000.0001) %MON dynstat_theta_del2           =   6.7743177263360E-06
(PID.TID 0000.0001) %MON dynstat_salt_max             =   3.4700000000000E+01
(PID.TID 0000.0001) %MON dynstat_salt_min             =   3.4000000000000E+01
(PID.TID 0000.0001) %MON dynstat_salt_mean            =   3.4497775080987E+01
(PID.TID 0000.0001) %MON dynstat_salt_sd              =   2.7003309877952E-01
(PID.TID 0000.0001) %MON dynstat_salt_del2            =   2.6862871209203E-06
(PID.TID 0000.0001) %MON advcfl_uvel_max              =   7.8331864879143E-03
(PID.TID 0000.0001) %MON advcfl_vvel_max              =   4.0523665028800E-03
(PID.TID 0000.0001) %MON advcfl_wvel_max              =   1.5895526387520E-02
(PID.TID 0000.0001) %MON advcfl_W_hf_max              =   1.5895526387520E-02
(PID.TID 0000.0001) %MON pe_b_mean                    =  -6.8075082851184E-01
(PID.TID 0000.0001) %MON ke_max                       =   2.9213581285780E-03
(PID.TID 0000.0001) %MON ke_mean                      =   3.0919333929406E-06
(PID.TID 0000.0001) %MON ke_vol                       =   4.6183309027664E+12
(PID.TID 0000.0001) // =======================================================
(PID.TID 0000.0001) // End MONITOR dynamic field statistics
(PID.TID 0000.0001) // =======================================================
(PID.TID 0000.0001) // =======================================================
(PID.TID 0000.0001) // Begin OBCS MONITOR field statistics
(PID.TID 0000.0001) // =======================================================
(PID.TID 0000.0001) %MON obc_N_vVel_max               =   1.2785410482642E-07
(PID.TID 0000.0001) %MON obc_N_vVel_min               =   1.2785410482642E-07
(PID.TID 0000.0001) %MON obc_N_vVel_mean              =   1.2785410482642E-07
(PID.TID 0000.0001) %MON obc_N_vVel_sd                =  -4.9224920485791E-28
(PID.TID 0000.0001) %MON obc_N_vVel_Int               =   8.4383709185440E+00
(PID.TID 0000.0001) // =======================================================
(PID.TID 0000.0001) // End OBCS MONITOR field statistics
(PID.TID 0000.0001) // =======================================================
 cg2d: Sum(rhs),rhsMax =   3.00376647511994E+00  4.53035368764322E+02
(PID.TID 0000.0001)      cg2d_init_res =   7.33731083043002E-06
(PID.TID 0000.0001)      cg2d_iters(min,last) =      -1      80
(PID.TID 0000.0001)      cg2d_last_res =   8.51859183263197E-12
(PID.TID 0000.0001) // =======================================================
(PID.TID 0000.0001) // Begin MONITOR dynamic field statistics
(PID.TID 0000.0001) // =======================================================
(PID.TID 0000.0001) %MON time_tsnumber                =                  1610
(PID.TID 0000.0001) %MON time_secondsf                =   1.6100000000000E+05
(PID.TID 0000.0001) %MON dynstat_eta_max              =   5.8000686002426E+00
(PID.TID 0000.0001) %MON dynstat_eta_min              =  -1.4163616557028E+01
(PID.TID 0000.0001) %MON dynstat_eta_mean             =  -2.5200230606257E+00
(PID.TID 0000.0001) %MON dynstat_eta_sd               =   4.9399116846083E+00
(PID.TID 0000.0001) %MON dynstat_eta_del2             =   1.9059989235384E-01
(PID.TID 0000.0001) %MON dynstat_uvel_max             =   1.7476647741266E-02
(PID.TID 0000.0001) %MON dynstat_uvel_min             =  -7.8470982522880E-02
(PID.TID 0000.0001) %MON dynstat_uvel_mean            =   8.2318516942586E-09
(PID.TID 0000.0001) %MON dynstat_uvel_sd              =   2.3133571255028E-03
(PID.TID 0000.0001) %MON dynstat_uvel_del2            =   3.6887711010784E-06
(PID.TID 0000.0001) %MON dynstat_vvel_max             =   4.0566000233828E-02
(PID.TID 0000.0001) %MON dynstat_vvel_min             =  -2.4928365169238E-02
(PID.TID 0000.0001) %MON dynstat_vvel_mean            =   1.9583825812838E-07
(PID.TID 0000.0001) %MON dynstat_vvel_sd              =   9.7818197809394E-04
(PID.TID 0000.0001) %MON dynstat_vvel_del2            =   2.4681297921846E-06
(PID.TID 0000.0001) %MON dynstat_wvel_max             =   2.7692353643452E-03
(PID.TID 0000.0001) %MON dynstat_wvel_min             =  -3.1794281855574E-03
(PID.TID 0000.0001) %MON dynstat_wvel_mean            =   6.0402583423513E-10
(PID.TID 0000.0001) %MON dynstat_wvel_sd              =   4.7296305407342E-05
(PID.TID 0000.0001) %MON dynstat_wvel_del2            =   1.7087460177047E-07
(PID.TID 0000.0001) %MON dynstat_theta_max            =   1.2000000000000E+00
(PID.TID 0000.0001) %MON dynstat_theta_min            =  -1.0000000000000E+00
(PID.TID 0000.0001) %MON dynstat_theta_mean           =   5.6465090244909E-01
(PID.TID 0000.0001) %MON dynstat_theta_sd             =   8.4872688313084E-01
(PID.TID 0000.0001) %MON dynstat_theta_del2           =   6.7847251513518E-06
(PID.TID 0000.0001) %MON dynstat_salt_max             =   3.4700000000000E+01
(PID.TID 0000.0001) %MON dynstat_salt_min             =   3.4000000000000E+01
(PID.TID 0000.0001) %MON dynstat_salt_mean            =   3.4497774476366E+01
(PID.TID 0000.0001) %MON dynstat_salt_sd              =   2.7003286083090E-01
(PID.TID 0000.0001) %MON dynstat_salt_del2            =   2.6904363733414E-06
(PID.TID 0000.0001) %MON advcfl_uvel_max              =   7.8470982522880E-03
(PID.TID 0000.0001) %MON advcfl_vvel_max              =   4.0566000233828E-03
(PID.TID 0000.0001) %MON advcfl_wvel_max              =   1.5897140927787E-02
(PID.TID 0000.0001) %MON advcfl_W_hf_max              =   1.5897140927787E-02
(PID.TID 0000.0001) %MON pe_b_mean                    =  -6.8074675200994E-01
(PID.TID 0000.0001) %MON ke_max                       =   2.9321424285712E-03
(PID.TID 0000.0001) %MON ke_mean                      =   3.1039159705715E-06
(PID.TID 0000.0001) %MON ke_vol                       =   4.6183309828331E+12
(PID.TID 0000.0001) // =======================================================
(PID.TID 0000.0001) // End MONITOR dynamic field statistics
(PID.TID 0000.0001) // =======================================================
(PID.TID 0000.0001) // =======================================================
(PID.TID 0000.0001) // Begin OBCS MONITOR field statistics
(PID.TID 0000.0001) // =======================================================
(PID.TID 0000.0001) %MON obc_N_vVel_max               =   1.2876498594936E-07
(PID.TID 0000.0001) %MON obc_N_vVel_min               =   1.2876498594936E-07
(PID.TID 0000.0001) %MON obc_N_vVel_mean              =   1.2876498594936E-07
(PID.TID 0000.0001) %MON obc_N_vVel_sd                =   2.9935697558785E-14
(PID.TID 0000.0001) %MON obc_N_vVel_Int               =   8.4984890726579E+00
(PID.TID 0000.0001) // =======================================================
(PID.TID 0000.0001) // End OBCS MONITOR field statistics
(PID.TID 0000.0001) // =======================================================
 cg2d: Sum(rhs),rhsMax =   3.00375052274468E+00  4.53035344194119E+02
(PID.TID 0000.0001)      cg2d_init_res =   7.34743965528814E-06
(PID.TID 0000.0001)      cg2d_iters(min,last) =      -1      80
(PID.TID 0000.0001)      cg2d_last_res =   8.53300382558775E-12
(PID.TID 0000.0001) // =======================================================
(PID.TID 0000.0001) // Begin MONITOR dynamic field statistics
(PID.TID 0000.0001) // =======================================================
(PID.TID 0000.0001) %MON time_tsnumber                =                  1611
(PID.TID 0000.0001) %MON time_secondsf                =   1.6110000000000E+05
(PID.TID 0000.0001) %MON dynstat_eta_max              =   5.8000724914248E+00
(PID.TID 0000.0001) %MON dynstat_eta_min              =  -1.4163612947943E+01
(PID.TID 0000.0001) %MON dynstat_eta_mean             =  -2.5200095406387E+00
(PID.TID 0000.0001) %MON dynstat_eta_sd               =   4.9399077697100E+00
(PID.TID 0000.0001) %MON dynstat_eta_del2             =   1.9059993236906E-01
(PID.TID 0000.0001) %MON dynstat_uvel_max             =   1.7508868702521E-02
(PID.TID 0000.0001) %MON dynstat_uvel_min             =  -7.8610186928767E-02
(PID.TID 0000.0001) %MON dynstat_uvel_mean            =   8.2629540570770E-09
(PID.TID 0000.0001) %MON dynstat_uvel_sd              =   2.3178943137670E-03
(PID.TID 0000.0001) %MON dynstat_uvel_del2            =   3.6967272577479E-06
(PID.TID 0000.0001) %MON dynstat_vvel_max             =   4.0608323036452E-02
(PID.TID 0000.0001) %MON dynstat_vvel_min             =  -2.4989448100122E-02
(PID.TID 0000.0001) %MON dynstat_vvel_mean            =   1.9642540325847E-07
(PID.TID 0000.0001) %MON dynstat_vvel_sd              =   9.7992999322523E-04
(PID.TID 0000.0001) %MON dynstat_vvel_del2            =   2.4720105939258E-06
(PID.TID 0000.0001) %MON dynstat_wvel_max             =   2.7727275433317E-03
(PID.TID 0000.0001) %MON dynstat_wvel_min             =  -3.1797226096779E-03
(PID.TID 0000.0001) %MON dynstat_wvel_mean            =   6.0285853584404E-10
(PID.TID 0000.0001) %MON dynstat_wvel_sd              =   4.7360664040470E-05
(PID.TID 0000.0001) %MON dynstat_wvel_del2            =   1.7106766913436E-07
(PID.TID 0000.0001) %MON dynstat_theta_max            =   1.2000000000000E+00
(PID.TID 0000.0001) %MON dynstat_theta_min            =  -1.0000000000000E+00
(PID.TID 0000.0001) %MON dynstat_theta_mean           =   5.6464938839785E-01
(PID.TID 0000.0001) %MON dynstat_theta_sd             =   8.4872623988154E-01
(PID.TID 0000.0001) %MON dynstat_theta_del2           =   6.7951424403183E-06
(PID.TID 0000.0001) %MON dynstat_salt_max             =   3.4700000000000E+01
(PID.TID 0000.0001) %MON dynstat_salt_min             =   3.4000000000000E+01
(PID.TID 0000.0001) %MON dynstat_salt_mean            =   3.4497773870805E+01
(PID.TID 0000.0001) %MON dynstat_salt_sd              =   2.7003262262615E-01
(PID.TID 0000.0001) %MON dynstat_salt_del2            =   2.6945895395301E-06
(PID.TID 0000.0001) %MON advcfl_uvel_max              =   7.8610186928767E-03
(PID.TID 0000.0001) %MON advcfl_vvel_max              =   4.0608323036452E-03
(PID.TID 0000.0001) %MON advcfl_wvel_max              =   1.5898613048389E-02
(PID.TID 0000.0001) %MON advcfl_W_hf_max              =   1.5898613048389E-02
(PID.TID 0000.0001) %MON pe_b_mean                    =  -6.8074266918753E-01
(PID.TID 0000.0001) %MON ke_max                       =   2.9429477374630E-03
(PID.TID 0000.0001) %MON ke_mean                      =   3.1159362538846E-06
(PID.TID 0000.0001) %MON ke_vol                       =   4.6183310630199E+12
(PID.TID 0000.0001) // =======================================================
(PID.TID 0000.0001) // End MONITOR dynamic field statistics
(PID.TID 0000.0001) // =======================================================
(PID.TID 0000.0001) // =======================================================
(PID.TID 0000.0001) // Begin OBCS MONITOR field statistics
(PID.TID 0000.0001) // =======================================================
(PID.TID 0000.0001) %MON obc_N_vVel_max               =   1.2941354808329E-07
(PID.TID 0000.0001) %MON obc_N_vVel_min               =   1.2941354808329E-07
(PID.TID 0000.0001) %MON obc_N_vVel_mean              =   1.2941354808329E-07
(PID.TID 0000.0001) %MON obc_N_vVel_sd                =  -1.0097419586829E-27
(PID.TID 0000.0001) %MON obc_N_vVel_Int               =   8.5412941734972E+00
(PID.TID 0000.0001) // =======================================================
(PID.TID 0000.0001) // End OBCS MONITOR field statistics
(PID.TID 0000.0001) // =======================================================
 cg2d: Sum(rhs),rhsMax =   3.00373454599911E+00  4.53035319552508E+02
(PID.TID 0000.0001)      cg2d_init_res =   7.35757543538026E-06
(PID.TID 0000.0001)      cg2d_iters(min,last) =      -1      80
(PID.TID 0000.0001)      cg2d_last_res =   8.54747118790189E-12
(PID.TID 0000.0001) // =======================================================
(PID.TID 0000.0001) // Begin MONITOR dynamic field statistics
(PID.TID 0000.0001) // =======================================================
(PID.TID 0000.0001) %MON time_tsnumber                =                  1612
(PID.TID 0000.0001) %MON time_secondsf                =   1.6120000000000E+05
(PID.TID 0000.0001) %MON dynstat_eta_max              =   5.8000763874620E+00
(PID.TID 0000.0001) %MON dynstat_eta_min              =  -1.4163609337196E+01
(PID.TID 0000.0001) %MON dynstat_eta_mean             =  -2.5199959998104E+00
(PID.TID 0000.0001) %MON dynstat_eta_sd               =   4.9399038482871E+00
(PID.TID 0000.0001) %MON dynstat_eta_del2             =   1.9059997243465E-01
(PID.TID 0000.0001) %MON dynstat_uvel_max             =   1.7541107012301E-02
(PID.TID 0000.0001) %MON dynstat_uvel_min             =  -7.8749477920063E-02
(PID.TID 0000.0001) %MON dynstat_uvel_mean            =   8.2941336589029E-09
(PID.TID 0000.0001) %MON dynstat_uvel_sd              =   2.3224368742314E-03
(PID.TID 0000.0001) %MON dynstat_uvel_del2            =   3.7046967455265E-06
(PID.TID 0000.0001) %MON dynstat_vvel_max             =   4.0650633317023E-02
(PID.TID 0000.0001) %MON dynstat_vvel_min             =  -2.5050592529361E-02
(PID.TID 0000.0001) %MON dynstat_vvel_mean            =   1.9672626447603E-07
(PID.TID 0000.0001) %MON dynstat_vvel_sd              =   9.8168034114524E-04
(PID.TID 0000.0001) %MON dynstat_vvel_del2            =   2.4758951523838E-06
(PID.TID 0000.0001) %MON dynstat_wvel_max             =   2.7762173096651E-03
(PID.TID 0000.0001) %MON dynstat_wvel_min             =  -3.1799886368224E-03
(PID.TID 0000.0001) %MON dynstat_wvel_mean            =   6.0170896700171E-10
(PID.TID 0000.0001) %MON dynstat_wvel_sd              =   4.7424677031726E-05
(PID.TID 0000.0001) %MON dynstat_wvel_del2            =   1.7126005032745E-07
(PID.TID 0000.0001) %MON dynstat_theta_max            =   1.2000000000000E+00
(PID.TID 0000.0001) %MON dynstat_theta_min            =  -1.0000000000000E+00
(PID.TID 0000.0001) %MON dynstat_theta_mean           =   5.6464787199887E-01
(PID.TID 0000.0001) %MON dynstat_theta_sd             =   8.4872559586641E-01
(PID.TID 0000.0001) %MON dynstat_theta_del2           =   6.8055694995992E-06
(PID.TID 0000.0001) %MON dynstat_salt_max             =   3.4700000000000E+01
(PID.TID 0000.0001) %MON dynstat_salt_min             =   3.4000000000000E+01
(PID.TID 0000.0001) %MON dynstat_salt_mean            =   3.4497773264303E+01
(PID.TID 0000.0001) %MON dynstat_salt_sd              =   2.7003238416561E-01
(PID.TID 0000.0001) %MON dynstat_salt_del2            =   2.6987465950325E-06
(PID.TID 0000.0001) %MON advcfl_uvel_max              =   7.8749477920063E-03
(PID.TID 0000.0001) %MON advcfl_vvel_max              =   4.0650633317023E-03
(PID.TID 0000.0001) %MON advcfl_wvel_max              =   1.5899943184112E-02
(PID.TID 0000.0001) %MON advcfl_W_hf_max              =   1.5899943184112E-02
(PID.TID 0000.0001) %MON pe_b_mean                    =  -6.8073857997914E-01
(PID.TID 0000.0001) %MON ke_max                       =   2.9537739771656E-03
(PID.TID 0000.0001) %MON ke_mean                      =   3.1279943237398E-06
(PID.TID 0000.0001) %MON ke_vol                       =   4.6183311433286E+12
(PID.TID 0000.0001) // =======================================================
(PID.TID 0000.0001) // End MONITOR dynamic field statistics
(PID.TID 0000.0001) // =======================================================
(PID.TID 0000.0001) // =======================================================
(PID.TID 0000.0001) // Begin OBCS MONITOR field statistics
(PID.TID 0000.0001) // =======================================================
(PID.TID 0000.0001) %MON obc_N_vVel_max               =   1.2979332429479E-07
(PID.TID 0000.0001) %MON obc_N_vVel_min               =   1.2979332429479E-07
(PID.TID 0000.0001) %MON obc_N_vVel_mean              =   1.2979332429479E-07
(PID.TID 0000.0001) %MON obc_N_vVel_sd                =  -4.7962743037438E-28
(PID.TID 0000.0001) %MON obc_N_vVel_Int               =   8.5663594034561E+00
(PID.TID 0000.0001) // =======================================================
(PID.TID 0000.0001) // End OBCS MONITOR field statistics
(PID.TID 0000.0001) // =======================================================
 cg2d: Sum(rhs),rhsMax =   3.00371854451736E+00  4.53035294838319E+02
(PID.TID 0000.0001)      cg2d_init_res =   7.36771651611789E-06
(PID.TID 0000.0001)      cg2d_iters(min,last) =      -1      80
(PID.TID 0000.0001)      cg2d_last_res =   8.56199324508799E-12
(PID.TID 0000.0001) // =======================================================
(PID.TID 0000.0001) // Begin MONITOR dynamic field statistics
(PID.TID 0000.0001) // =======================================================
(PID.TID 0000.0001) %MON time_tsnumber                =                  1613
(PID.TID 0000.0001) %MON time_secondsf                =   1.6130000000000E+05
(PID.TID 0000.0001) %MON dynstat_eta_max              =   5.8000802885753E+00
(PID.TID 0000.0001) %MON dynstat_eta_min              =  -1.4163605724300E+01
(PID.TID 0000.0001) %MON dynstat_eta_mean             =  -2.5199824378273E+00
(PID.TID 0000.0001) %MON dynstat_eta_sd               =   4.9398999202379E+00
(PID.TID 0000.0001) %MON dynstat_eta_del2             =   1.9060001255035E-01
(PID.TID 0000.0001) %MON dynstat_uvel_max             =   1.7573362474799E-02
(PID.TID 0000.0001) %MON dynstat_uvel_min             =  -7.8888855312020E-02
(PID.TID 0000.0001) %MON dynstat_uvel_mean            =   8.3251344617169E-09
(PID.TID 0000.0001) %MON dynstat_uvel_sd              =   2.3269848020511E-03
(PID.TID 0000.0001) %MON dynstat_uvel_del2            =   3.7126795682731E-06
(PID.TID 0000.0001) %MON dynstat_vvel_max             =   4.0692930955309E-02
(PID.TID 0000.0001) %MON dynstat_vvel_min             =  -2.5111798194416E-02
(PID.TID 0000.0001) %MON dynstat_vvel_mean            =   1.9674506617353E-07
(PID.TID 0000.0001) %MON dynstat_vvel_sd              =   9.8343303442920E-04
(PID.TID 0000.0001) %MON dynstat_vvel_del2            =   2.4797834982453E-06
(PID.TID 0000.0001) %MON dynstat_wvel_max             =   2.7797046407054E-03
(PID.TID 0000.0001) %MON dynstat_wvel_min             =  -3.1802263574847E-03
(PID.TID 0000.0001) %MON dynstat_wvel_mean            =   6.0062422602604E-10
(PID.TID 0000.0001) %MON dynstat_wvel_sd              =   4.7488372189530E-05
(PID.TID 0000.0001) %MON dynstat_wvel_del2            =   1.7145177660149E-07
(PID.TID 0000.0001) %MON dynstat_theta_max            =   1.2000000000000E+00
(PID.TID 0000.0001) %MON dynstat_theta_min            =  -1.0000000000000E+00
(PID.TID 0000.0001) %MON dynstat_theta_mean           =   5.6464635325084E-01
(PID.TID 0000.0001) %MON dynstat_theta_sd             =   8.4872495108572E-01
(PID.TID 0000.0001) %MON dynstat_theta_del2           =   6.8160063120348E-06
(PID.TID 0000.0001) %MON dynstat_salt_max             =   3.4700000000000E+01
(PID.TID 0000.0001) %MON dynstat_salt_min             =   3.4000000000000E+01
(PID.TID 0000.0001) %MON dynstat_salt_mean            =   3.4497772656861E+01
(PID.TID 0000.0001) %MON dynstat_salt_sd              =   2.7003214544936E-01
(PID.TID 0000.0001) %MON dynstat_salt_del2            =   2.7029075267329E-06
(PID.TID 0000.0001) %MON advcfl_uvel_max              =   7.8888855312020E-03
(PID.TID 0000.0001) %MON advcfl_vvel_max              =   4.0692930955309E-03
(PID.TID 0000.0001) %MON advcfl_wvel_max              =   1.5901131787423E-02
(PID.TID 0000.0001) %MON advcfl_W_hf_max              =   1.5901131787423E-02
(PID.TID 0000.0001) %MON pe_b_mean                    =  -6.8073448432066E-01
(PID.TID 0000.0001) %MON ke_max                       =   2.9646210695108E-03
(PID.TID 0000.0001) %MON ke_mean                      =   3.1400902655265E-06
(PID.TID 0000.0001) %MON ke_vol                       =   4.6183312237611E+12
(PID.TID 0000.0001) // =======================================================
(PID.TID 0000.0001) // End MONITOR dynamic field statistics
(PID.TID 0000.0001) // =======================================================
(PID.TID 0000.0001) // =======================================================
(PID.TID 0000.0001) // Begin OBCS MONITOR field statistics
(PID.TID 0000.0001) // =======================================================
(PID.TID 0000.0001) %MON obc_N_vVel_max               =   1.2990411105986E-07
(PID.TID 0000.0001) %MON obc_N_vVel_min               =   1.2990411105986E-07
(PID.TID 0000.0001) %MON obc_N_vVel_mean              =   1.2990411105986E-07
(PID.TID 0000.0001) %MON obc_N_vVel_sd                =   2.4549739949516E-14
(PID.TID 0000.0001) %MON obc_N_vVel_Int               =   8.5736713299509E+00
(PID.TID 0000.0001) // =======================================================
(PID.TID 0000.0001) // End OBCS MONITOR field statistics
(PID.TID 0000.0001) // =======================================================
 cg2d: Sum(rhs),rhsMax =   3.00370251797255E+00  4.53035270045736E+02
(PID.TID 0000.0001)      cg2d_init_res =   7.37786565414312E-06
(PID.TID 0000.0001)      cg2d_iters(min,last) =      -1      80
(PID.TID 0000.0001)      cg2d_last_res =   8.57657146091222E-12
(PID.TID 0000.0001) // =======================================================
(PID.TID 0000.0001) // Begin MONITOR dynamic field statistics
(PID.TID 0000.0001) // =======================================================
(PID.TID 0000.0001) %MON time_tsnumber                =                  1614
(PID.TID 0000.0001) %MON time_secondsf                =   1.6140000000000E+05
(PID.TID 0000.0001) %MON dynstat_eta_max              =   5.8000841949626E+00
(PID.TID 0000.0001) %MON dynstat_eta_min              =  -1.4163602108762E+01
(PID.TID 0000.0001) %MON dynstat_eta_mean             =  -2.5199688543829E+00
(PID.TID 0000.0001) %MON dynstat_eta_sd               =   4.9398959854700E+00
(PID.TID 0000.0001) %MON dynstat_eta_del2             =   1.9060005271600E-01
(PID.TID 0000.0001) %MON dynstat_uvel_max             =   1.7605634893398E-02
(PID.TID 0000.0001) %MON dynstat_uvel_min             =  -7.9028318911718E-02
(PID.TID 0000.0001) %MON dynstat_uvel_mean            =   8.3557093460708E-09
(PID.TID 0000.0001) %MON dynstat_uvel_sd              =   2.3315380923466E-03
(PID.TID 0000.0001) %MON dynstat_uvel_del2            =   3.7206757297755E-06
(PID.TID 0000.0001) %MON dynstat_vvel_max             =   4.0735215830567E-02
(PID.TID 0000.0001) %MON dynstat_vvel_min             =  -2.5173064830298E-02
(PID.TID 0000.0001) %MON dynstat_vvel_mean            =   1.9649251127761E-07
(PID.TID 0000.0001) %MON dynstat_vvel_sd              =   9.8518808974041E-04
(PID.TID 0000.0001) %MON dynstat_vvel_del2            =   2.4836756738678E-06
(PID.TID 0000.0001) %MON dynstat_wvel_max             =   2.7831895139369E-03
(PID.TID 0000.0001) %MON dynstat_wvel_min             =  -3.1804358647790E-03
(PID.TID 0000.0001) %MON dynstat_wvel_mean            =   5.9964760359044E-10
(PID.TID 0000.0001) %MON dynstat_wvel_sd              =   4.7551790457024E-05
(PID.TID 0000.0001) %MON dynstat_wvel_del2            =   1.7164290915812E-07
(PID.TID 0000.0001) %MON dynstat_theta_max            =   1.2000000000000E+00
(PID.TID 0000.0001) %MON dynstat_theta_min            =  -1.0000000000000E+00
(PID.TID 0000.0001) %MON dynstat_theta_mean           =   5.6464483215231E-01
(PID.TID 0000.0001) %MON dynstat_theta_sd             =   8.4872430554031E-01
(PID.TID 0000.0001) %MON dynstat_theta_del2           =   6.8264527446894E-06
(PID.TID 0000.0001) %MON dynstat_salt_max             =   3.4700000000000E+01
(PID.TID 0000.0001) %MON dynstat_salt_min             =   3.4000000000000E+01
(PID.TID 0000.0001) %MON dynstat_salt_mean            =   3.4497772048477E+01
(PID.TID 0000.0001) %MON dynstat_salt_sd              =   2.7003190647785E-01
(PID.TID 0000.0001) %MON dynstat_salt_del2            =   2.7070723223803E-06
(PID.TID 0000.0001) %MON advcfl_uvel_max              =   7.9028318911718E-03
(PID.TID 0000.0001) %MON advcfl_vvel_max              =   4.0735215830567E-03
(PID.TID 0000.0001) %MON advcfl_wvel_max              =   1.5902179323895E-02
(PID.TID 0000.0001) %MON advcfl_W_hf_max              =   1.5902179323895E-02
(PID.TID 0000.0001) %MON pe_b_mean                    =  -6.8073038215062E-01
(PID.TID 0000.0001) %MON ke_max                       =   2.9754889362774E-03
(PID.TID 0000.0001) %MON ke_mean                      =   3.1522241686863E-06
(PID.TID 0000.0001) %MON ke_vol                       =   4.6183313043193E+12
(PID.TID 0000.0001) // =======================================================
(PID.TID 0000.0001) // End MONITOR dynamic field statistics
(PID.TID 0000.0001) // =======================================================
(PID.TID 0000.0001) // =======================================================
(PID.TID 0000.0001) // Begin OBCS MONITOR field statistics
(PID.TID 0000.0001) // =======================================================
(PID.TID 0000.0001) %MON obc_N_vVel_max               =   1.2975203487242E-07
(PID.TID 0000.0001) %MON obc_N_vVel_min               =   1.2975203487242E-07
(PID.TID 0000.0001) %MON obc_N_vVel_mean              =   1.2975203487242E-07
(PID.TID 0000.0001) %MON obc_N_vVel_sd                =   9.0576781872059E-15
(PID.TID 0000.0001) %MON obc_N_vVel_Int               =   8.5636343015799E+00
(PID.TID 0000.0001) // =======================================================
(PID.TID 0000.0001) // End OBCS MONITOR field statistics
(PID.TID 0000.0001) // =======================================================
 cg2d: Sum(rhs),rhsMax =   3.00368646602740E+00  4.53035245172869E+02
(PID.TID 0000.0001)      cg2d_init_res =   7.38802588103439E-06
(PID.TID 0000.0001)      cg2d_iters(min,last) =      -1      80
(PID.TID 0000.0001)      cg2d_last_res =   8.59120512558823E-12
(PID.TID 0000.0001) // =======================================================
(PID.TID 0000.0001) // Begin MONITOR dynamic field statistics
(PID.TID 0000.0001) // =======================================================
(PID.TID 0000.0001) %MON time_tsnumber                =                  1615
(PID.TID 0000.0001) %MON time_secondsf                =   1.6150000000000E+05
(PID.TID 0000.0001) %MON dynstat_eta_max              =   5.8000881067773E+00
(PID.TID 0000.0001) %MON dynstat_eta_min              =  -1.4163598490141E+01
(PID.TID 0000.0001) %MON dynstat_eta_mean             =  -2.5199552491836E+00
(PID.TID 0000.0001) %MON dynstat_eta_sd               =   4.9398920439010E+00
(PID.TID 0000.0001) %MON dynstat_eta_del2             =   1.9060009293151E-01
(PID.TID 0000.0001) %MON dynstat_uvel_max             =   1.7637924070545E-02
(PID.TID 0000.0001) %MON dynstat_uvel_min             =  -7.9167868518081E-02
(PID.TID 0000.0001) %MON dynstat_uvel_mean            =   8.3856221511047E-09
(PID.TID 0000.0001) %MON dynstat_uvel_sd              =   2.3360967401842E-03
(PID.TID 0000.0001) %MON dynstat_uvel_del2            =   3.7286852337920E-06
(PID.TID 0000.0001) %MON dynstat_vvel_max             =   4.0777487821471E-02
(PID.TID 0000.0001) %MON dynstat_vvel_min             =  -2.5234392169587E-02
(PID.TID 0000.0001) %MON dynstat_vvel_mean            =   1.9598547043750E-07
(PID.TID 0000.0001) %MON dynstat_vvel_sd              =   9.8694552718876E-04
(PID.TID 0000.0001) %MON dynstat_vvel_del2            =   2.4875717317942E-06
(PID.TID 0000.0001) %MON dynstat_wvel_max             =   2.7866719068802E-03
(PID.TID 0000.0001) %MON dynstat_wvel_min             =  -3.1806172544375E-03
(PID.TID 0000.0001) %MON dynstat_wvel_mean            =   5.9882171631450E-10
(PID.TID 0000.0001) %MON dynstat_wvel_sd              =   4.7614984109605E-05
(PID.TID 0000.0001) %MON dynstat_wvel_del2            =   1.7183353688481E-07
(PID.TID 0000.0001) %MON dynstat_theta_max            =   1.2000000000000E+00
(PID.TID 0000.0001) %MON dynstat_theta_min            =  -1.0000000000000E+00
(PID.TID 0000.0001) %MON dynstat_theta_mean           =   5.6464330870176E-01
(PID.TID 0000.0001) %MON dynstat_theta_sd             =   8.4872365923057E-01
(PID.TID 0000.0001) %MON dynstat_theta_del2           =   6.8369086465677E-06
(PID.TID 0000.0001) %MON dynstat_salt_max             =   3.4700000000000E+01
(PID.TID 0000.0001) %MON dynstat_salt_min             =   3.4000000000000E+01
(PID.TID 0000.0001) %MON dynstat_salt_mean            =   3.4497771439151E+01
(PID.TID 0000.0001) %MON dynstat_salt_sd              =   2.7003166725142E-01
(PID.TID 0000.0001) %MON dynstat_salt_del2            =   2.7112409424810E-06
(PID.TID 0000.0001) %MON advcfl_uvel_max              =   7.9167868518081E-03
(PID.TID 0000.0001) %MON advcfl_vvel_max              =   4.0777487821471E-03
(PID.TID 0000.0001) %MON advcfl_wvel_max              =   1.5903086272188E-02
(PID.TID 0000.0001) %MON advcfl_W_hf_max              =   1.5903086272188E-02
(PID.TID 0000.0001) %MON pe_b_mean                    =  -6.8072627341154E-01
(PID.TID 0000.0001) %MON ke_max                       =   2.9863774992129E-03
(PID.TID 0000.0001) %MON ke_mean                      =   3.1643961260703E-06
(PID.TID 0000.0001) %MON ke_vol                       =   4.6183313850050E+12
(PID.TID 0000.0001) // =======================================================
(PID.TID 0000.0001) // End MONITOR dynamic field statistics
(PID.TID 0000.0001) // =======================================================
(PID.TID 0000.0001) // =======================================================
(PID.TID 0000.0001) // Begin OBCS MONITOR field statistics
(PID.TID 0000.0001) // =======================================================
(PID.TID 0000.0001) %MON obc_N_vVel_max               =   1.2934904299670E-07
(PID.TID 0000.0001) %MON obc_N_vVel_min               =   1.2934904299670E-07
(PID.TID 0000.0001) %MON obc_N_vVel_mean              =   1.2934904299670E-07
(PID.TID 0000.0001) %MON obc_N_vVel_sd                =  -7.8570546160013E-28
(PID.TID 0000.0001) %MON obc_N_vVel_Int               =   8.5370368377822E+00
(PID.TID 0000.0001) // =======================================================
(PID.TID 0000.0001) // End OBCS MONITOR field statistics
(PID.TID 0000.0001) // =======================================================
 cg2d: Sum(rhs),rhsMax =   3.00367038836194E+00  4.53035220218806E+02
(PID.TID 0000.0001)      cg2d_init_res =   7.39818775375926E-06
(PID.TID 0000.0001)      cg2d_iters(min,last) =      -1      80
(PID.TID 0000.0001)      cg2d_last_res =   8.60589158160859E-12
(PID.TID 0000.0001) // =======================================================
(PID.TID 0000.0001) // Begin MONITOR dynamic field statistics
(PID.TID 0000.0001) // =======================================================
(PID.TID 0000.0001) %MON time_tsnumber                =                  1616
(PID.TID 0000.0001) %MON time_secondsf                =   1.6160000000000E+05
(PID.TID 0000.0001) %MON dynstat_eta_max              =   5.8000920241401E+00
(PID.TID 0000.0001) %MON dynstat_eta_min              =  -1.4163594868025E+01
(PID.TID 0000.0001) %MON dynstat_eta_mean             =  -2.5199416219560E+00
(PID.TID 0000.0001) %MON dynstat_eta_sd               =   4.9398880954589E+00
(PID.TID 0000.0001) %MON dynstat_eta_del2             =   1.9060013319673E-01
(PID.TID 0000.0001) %MON dynstat_uvel_max             =   1.7670229807787E-02
(PID.TID 0000.0001) %MON dynstat_uvel_min             =  -7.9307503921648E-02
(PID.TID 0000.0001) %MON dynstat_uvel_mean            =   8.4146455853854E-09
(PID.TID 0000.0001) %MON dynstat_uvel_sd              =   2.3406607405971E-03
(PID.TID 0000.0001) %MON dynstat_uvel_del2            =   3.7367080839083E-06
(PID.TID 0000.0001) %MON dynstat_vvel_max             =   4.0819746805985E-02
(PID.TID 0000.0001) %MON dynstat_vvel_min             =  -2.5295779942422E-02
(PID.TID 0000.0001) %MON dynstat_vvel_mean            =   1.9524656031690E-07
(PID.TID 0000.0001) %MON dynstat_vvel_sd              =   9.8870536965545E-04
(PID.TID 0000.0001) %MON dynstat_vvel_del2            =   2.4914717329453E-06
(PID.TID 0000.0001) %MON dynstat_wvel_max             =   2.7901517971871E-03
(PID.TID 0000.0001) %MON dynstat_wvel_min             =  -3.1807706247653E-03
(PID.TID 0000.0001) %MON dynstat_wvel_mean            =   5.9818457932238E-10
(PID.TID 0000.0001) %MON dynstat_wvel_sd              =   4.7678014530064E-05
(PID.TID 0000.0001) %MON dynstat_wvel_del2            =   1.7202377396610E-07
(PID.TID 0000.0001) %MON dynstat_theta_max            =   1.2000000000000E+00
(PID.TID 0000.0001) %MON dynstat_theta_min            =  -1.0000000000000E+00
(PID.TID 0000.0001) %MON dynstat_theta_mean           =   5.6464178289754E-01
(PID.TID 0000.0001) %MON dynstat_theta_sd             =   8.4872301215708E-01
(PID.TID 0000.0001) %MON dynstat_theta_del2           =   6.8473738414722E-06
(PID.TID 0000.0001) %MON dynstat_salt_max             =   3.4700000000000E+01
(PID.TID 0000.0001) %MON dynstat_salt_min             =   3.4000000000000E+01
(PID.TID 0000.0001) %MON dynstat_salt_mean            =   3.4497770828882E+01
(PID.TID 0000.0001) %MON dynstat_salt_sd              =   2.7003142777039E-01
(PID.TID 0000.0001) %MON dynstat_salt_del2            =   2.7154133409413E-06
(PID.TID 0000.0001) %MON advcfl_uvel_max              =   7.9307503921648E-03
(PID.TID 0000.0001) %MON advcfl_vvel_max              =   4.0819746805985E-03
(PID.TID 0000.0001) %MON advcfl_wvel_max              =   1.5903853123827E-02
(PID.TID 0000.0001) %MON advcfl_W_hf_max              =   1.5903853123827E-02
(PID.TID 0000.0001) %MON pe_b_mean                    =  -6.8072215805112E-01
(PID.TID 0000.0001) %MON ke_max                       =   2.9972866800535E-03
(PID.TID 0000.0001) %MON ke_mean                      =   3.1766062333497E-06
(PID.TID 0000.0001) %MON ke_vol                       =   4.6183314658198E+12
(PID.TID 0000.0001) // =======================================================
(PID.TID 0000.0001) // End MONITOR dynamic field statistics
(PID.TID 0000.0001) // =======================================================
(PID.TID 0000.0001) // =======================================================
(PID.TID 0000.0001) // Begin OBCS MONITOR field statistics
(PID.TID 0000.0001) // =======================================================
(PID.TID 0000.0001) %MON obc_N_vVel_max               =   1.2871288629671E-07
(PID.TID 0000.0001) %MON obc_N_vVel_min               =   1.2871288629671E-07
(PID.TID 0000.0001) %MON obc_N_vVel_mean              =   1.2871288629671E-07
(PID.TID 0000.0001) %MON obc_N_vVel_sd                =   3.3704001298336E-14
(PID.TID 0000.0001) %MON obc_N_vVel_Int               =   8.4950504955826E+00
(PID.TID 0000.0001) // =======================================================
(PID.TID 0000.0001) // End OBCS MONITOR field statistics
(PID.TID 0000.0001) // =======================================================
 cg2d: Sum(rhs),rhsMax =   3.00365428467985E+00  4.53035195183672E+02
(PID.TID 0000.0001)      cg2d_init_res =   7.40835039611039E-06
(PID.TID 0000.0001)      cg2d_iters(min,last) =      -1      80
(PID.TID 0000.0001)      cg2d_last_res =   8.62062864546979E-12
(PID.TID 0000.0001) // =======================================================
(PID.TID 0000.0001) // Begin MONITOR dynamic field statistics
(PID.TID 0000.0001) // =======================================================
(PID.TID 0000.0001) %MON time_tsnumber                =                  1617
(PID.TID 0000.0001) %MON time_secondsf                =   1.6170000000000E+05
(PID.TID 0000.0001) %MON dynstat_eta_max              =   5.8000959471219E+00
(PID.TID 0000.0001) %MON dynstat_eta_min              =  -1.4163591242057E+01
(PID.TID 0000.0001) %MON dynstat_eta_mean             =  -2.5199279724522E+00
(PID.TID 0000.0001) %MON dynstat_eta_sd               =   4.9398841400842E+00
(PID.TID 0000.0001) %MON dynstat_eta_del2             =   1.9060017351152E-01
(PID.TID 0000.0001) %MON dynstat_uvel_max             =   1.7702551905819E-02
(PID.TID 0000.0001) %MON dynstat_uvel_min             =  -7.9447224904637E-02
(PID.TID 0000.0001) %MON dynstat_uvel_mean            =   8.4425635558431E-09
(PID.TID 0000.0001) %MON dynstat_uvel_sd              =   2.3452300885909E-03
(PID.TID 0000.0001) %MON dynstat_uvel_del2            =   3.7447442835874E-06
(PID.TID 0000.0001) %MON dynstat_vvel_max             =   4.0861992661583E-02
(PID.TID 0000.0001) %MON dynstat_vvel_min             =  -2.5357227876487E-02
(PID.TID 0000.0001) %MON dynstat_vvel_mean            =   1.9430356955841E-07
(PID.TID 0000.0001) %MON dynstat_vvel_sd              =   9.9046764190275E-04
(PID.TID 0000.0001) %MON dynstat_vvel_del2            =   2.4953757442770E-06
(PID.TID 0000.0001) %MON dynstat_wvel_max             =   2.7936291625833E-03
(PID.TID 0000.0001) %MON dynstat_wvel_min             =  -3.1808960766154E-03
(PID.TID 0000.0001) %MON dynstat_wvel_mean            =   5.9776964589712E-10
(PID.TID 0000.0001) %MON dynstat_wvel_sd              =   4.7740949619618E-05
(PID.TID 0000.0001) %MON dynstat_wvel_del2            =   1.7221375677710E-07
(PID.TID 0000.0001) %MON dynstat_theta_max            =   1.2000000000000E+00
(PID.TID 0000.0001) %MON dynstat_theta_min            =  -1.0000000000000E+00
(PID.TID 0000.0001) %MON dynstat_theta_mean           =   5.6464025473794E-01
(PID.TID 0000.0001) %MON dynstat_theta_sd             =   8.4872236431978E-01
(PID.TID 0000.0001) %MON dynstat_theta_del2           =   6.8578481552465E-06
(PID.TID 0000.0001) %MON dynstat_salt_max             =   3.4700000000000E+01
(PID.TID 0000.0001) %MON dynstat_salt_min             =   3.4000000000000E+01
(PID.TID 0000.0001) %MON dynstat_salt_mean            =   3.4497770217670E+01
(PID.TID 0000.0001) %MON dynstat_salt_sd              =   2.7003118803490E-01
(PID.TID 0000.0001) %MON dynstat_salt_del2            =   2.7195894671905E-06
(PID.TID 0000.0001) %MON advcfl_uvel_max              =   7.9447224904637E-03
(PID.TID 0000.0001) %MON advcfl_vvel_max              =   4.0861992661583E-03
(PID.TID 0000.0001) %MON advcfl_wvel_max              =   1.5904480383077E-02
(PID.TID 0000.0001) %MON advcfl_W_hf_max              =   1.5904480383077E-02
(PID.TID 0000.0001) %MON pe_b_mean                    =  -6.8071803602329E-01
(PID.TID 0000.0001) %MON ke_max                       =   3.0082164005602E-03
(PID.TID 0000.0001) %MON ke_mean                      =   3.1888545881695E-06
(PID.TID 0000.0001) %MON ke_vol                       =   4.6183315467656E+12
(PID.TID 0000.0001) // =======================================================
(PID.TID 0000.0001) // End MONITOR dynamic field statistics
(PID.TID 0000.0001) // =======================================================
(PID.TID 0000.0001) // =======================================================
(PID.TID 0000.0001) // Begin OBCS MONITOR field statistics
(PID.TID 0000.0001) // =======================================================
(PID.TID 0000.0001) %MON obc_N_vVel_max               =   1.2786654284286E-07
(PID.TID 0000.0001) %MON obc_N_vVel_min               =   1.2786654284285E-07
(PID.TID 0000.0001) %MON obc_N_vVel_mean              =   1.2786654284285E-07
(PID.TID 0000.0001) %MON obc_N_vVel_sd                =   3.5214902285928E-14
(PID.TID 0000.0001) %MON obc_N_vVel_Int               =   8.4391918276282E+00
(PID.TID 0000.0001) // =======================================================
(PID.TID 0000.0001) // End OBCS MONITOR field statistics
(PID.TID 0000.0001) // =======================================================
 cg2d: Sum(rhs),rhsMax =   3.00363815471473E+00  4.53035170068621E+02
(PID.TID 0000.0001)      cg2d_init_res =   7.41851221900590E-06
(PID.TID 0000.0001)      cg2d_iters(min,last) =      -1      80
(PID.TID 0000.0001)      cg2d_last_res =   8.63540595989692E-12
(PID.TID 0000.0001) // =======================================================
(PID.TID 0000.0001) // Begin MONITOR dynamic field statistics
(PID.TID 0000.0001) // =======================================================
(PID.TID 0000.0001) %MON time_tsnumber                =                  1618
(PID.TID 0000.0001) %MON time_secondsf                =   1.6180000000000E+05
(PID.TID 0000.0001) %MON dynstat_eta_max              =   5.8000998757242E+00
(PID.TID 0000.0001) %MON dynstat_eta_min              =  -1.4163587611937E+01
(PID.TID 0000.0001) %MON dynstat_eta_mean             =  -2.5199143004552E+00
(PID.TID 0000.0001) %MON dynstat_eta_sd               =   4.9398801777320E+00
(PID.TID 0000.0001) %MON dynstat_eta_del2             =   1.9060021387580E-01
(PID.TID 0000.0001) %MON dynstat_uvel_max             =   1.7734890164506E-02
(PID.TID 0000.0001) %MON dynstat_uvel_min             =  -7.9587031240674E-02
(PID.TID 0000.0001) %MON dynstat_uvel_mean            =   8.4691736065648E-09
(PID.TID 0000.0001) %MON dynstat_uvel_sd              =   2.3498047791224E-03
(PID.TID 0000.0001) %MON dynstat_uvel_del2            =   3.7527938360161E-06
(PID.TID 0000.0001) %MON dynstat_vvel_max             =   4.0904225264710E-02
(PID.TID 0000.0001) %MON dynstat_vvel_min             =  -2.5418735697428E-02
(PID.TID 0000.0001) %MON dynstat_vvel_mean            =   1.9318877042663E-07
(PID.TID 0000.0001) %MON dynstat_vvel_sd              =   9.9223236965506E-04
(PID.TID 0000.0001) %MON dynstat_vvel_del2            =   2.4992838368953E-06
(PID.TID 0000.0001) %MON dynstat_wvel_max             =   2.7971039808903E-03
(PID.TID 0000.0001) %MON dynstat_wvel_min             =  -3.1809937134050E-03
(PID.TID 0000.0001) %MON dynstat_wvel_mean            =   5.9760495048115E-10
(PID.TID 0000.0001) %MON dynstat_wvel_sd              =   4.7803860958690E-05
(PID.TID 0000.0001) %MON dynstat_wvel_del2            =   1.7240364041025E-07
(PID.TID 0000.0001) %MON dynstat_theta_max            =   1.2000000000000E+00
(PID.TID 0000.0001) %MON dynstat_theta_min            =  -1.0000000000000E+00
(PID.TID 0000.0001) %MON dynstat_theta_mean           =   5.6463872422117E-01
(PID.TID 0000.0001) %MON dynstat_theta_sd             =   8.4872171571942E-01
(PID.TID 0000.0001) %MON dynstat_theta_del2           =   6.8683315180288E-06
(PID.TID 0000.0001) %MON dynstat_salt_max             =   3.4700000000000E+01
(PID.TID 0000.0001) %MON dynstat_salt_min             =   3.4000000000000E+01
(PID.TID 0000.0001) %MON dynstat_salt_mean            =   3.4497769605514E+01
(PID.TID 0000.0001) %MON dynstat_salt_sd              =   2.7003094804542E-01
(PID.TID 0000.0001) %MON dynstat_salt_del2            =   2.7237692727905E-06
(PID.TID 0000.0001) %MON advcfl_uvel_max              =   7.9587031240674E-03
(PID.TID 0000.0001) %MON advcfl_vvel_max              =   4.0904225264710E-03
(PID.TID 0000.0001) %MON advcfl_wvel_max              =   1.5904968567025E-02
(PID.TID 0000.0001) %MON advcfl_W_hf_max              =   1.5904968567025E-02
(PID.TID 0000.0001) %MON pe_b_mean                    =  -6.8071390728915E-01
(PID.TID 0000.0001) %MON ke_max                       =   3.0191665825253E-03
(PID.TID 0000.0001) %MON ke_mean                      =   3.2011412892049E-06
(PID.TID 0000.0001) %MON ke_vol                       =   4.6183316278436E+12
(PID.TID 0000.0001) // =======================================================
(PID.TID 0000.0001) // End MONITOR dynamic field statistics
(PID.TID 0000.0001) // =======================================================
(PID.TID 0000.0001) // =======================================================
(PID.TID 0000.0001) // Begin OBCS MONITOR field statistics
(PID.TID 0000.0001) // =======================================================
(PID.TID 0000.0001) %MON obc_N_vVel_max               =   1.2683765106900E-07
(PID.TID 0000.0001) %MON obc_N_vVel_min               =   1.2683765106900E-07
(PID.TID 0000.0001) %MON obc_N_vVel_mean              =   1.2683765106900E-07
(PID.TID 0000.0001) %MON obc_N_vVel_sd                =   1.7038216254096E-14
(PID.TID 0000.0001) %MON obc_N_vVel_Int               =   8.3712849705540E+00
(PID.TID 0000.0001) // =======================================================
(PID.TID 0000.0001) // End OBCS MONITOR field statistics
(PID.TID 0000.0001) // =======================================================
 cg2d: Sum(rhs),rhsMax =   3.00362199823557E+00  4.53035144875788E+02
(PID.TID 0000.0001)      cg2d_init_res =   7.42867312237625E-06
(PID.TID 0000.0001)      cg2d_iters(min,last) =      -1      80
(PID.TID 0000.0001)      cg2d_last_res =   8.65022230984037E-12
(PID.TID 0000.0001) // =======================================================
(PID.TID 0000.0001) // Begin MONITOR dynamic field statistics
(PID.TID 0000.0001) // =======================================================
(PID.TID 0000.0001) %MON time_tsnumber                =                  1619
(PID.TID 0000.0001) %MON time_secondsf                =   1.6190000000000E+05
(PID.TID 0000.0001) %MON dynstat_eta_max              =   5.8001038098921E+00
(PID.TID 0000.0001) %MON dynstat_eta_min              =  -1.4163583977424E+01
(PID.TID 0000.0001) %MON dynstat_eta_mean             =  -2.5199006057829E+00
(PID.TID 0000.0001) %MON dynstat_eta_sd               =   4.9398762083714E+00
(PID.TID 0000.0001) %MON dynstat_eta_del2             =   1.9060025428951E-01
(PID.TID 0000.0001) %MON dynstat_uvel_max             =   1.7767244382884E-02
(PID.TID 0000.0001) %MON dynstat_uvel_min             =  -7.9726922694622E-02
(PID.TID 0000.0001) %MON dynstat_uvel_mean            =   8.4942936096229E-09
(PID.TID 0000.0001) %MON dynstat_uvel_sd              =   2.3543848071104E-03
(PID.TID 0000.0001) %MON dynstat_uvel_del2            =   3.7608567442469E-06
(PID.TID 0000.0001) %MON dynstat_vvel_max             =   4.0946444490994E-02
(PID.TID 0000.0001) %MON dynstat_vvel_min             =  -2.5480303128582E-02
(PID.TID 0000.0001) %MON dynstat_vvel_mean            =   1.9193813251553E-07
(PID.TID 0000.0001) %MON dynstat_vvel_sd              =   9.9399957859644E-04
(PID.TID 0000.0001) %MON dynstat_vvel_del2            =   2.5031960833450E-06
(PID.TID 0000.0001) %MON dynstat_wvel_max             =   2.8005762300291E-03
(PID.TID 0000.0001) %MON dynstat_wvel_min             =  -3.1810636410330E-03
(PID.TID 0000.0001) %MON dynstat_wvel_mean            =   5.9771255417380E-10
(PID.TID 0000.0001) %MON dynstat_wvel_sd              =   4.7866820822711E-05
(PID.TID 0000.0001) %MON dynstat_wvel_del2            =   1.7259359467078E-07
(PID.TID 0000.0001) %MON dynstat_theta_max            =   1.2000000000000E+00
(PID.TID 0000.0001) %MON dynstat_theta_min            =  -1.0000000000000E+00
(PID.TID 0000.0001) %MON dynstat_theta_mean           =   5.6463719134532E-01
(PID.TID 0000.0001) %MON dynstat_theta_sd             =   8.4872106635559E-01
(PID.TID 0000.0001) %MON dynstat_theta_del2           =   6.8788222480642E-06
(PID.TID 0000.0001) %MON dynstat_salt_max             =   3.4700000000000E+01
(PID.TID 0000.0001) %MON dynstat_salt_min             =   3.4000000000000E+01
(PID.TID 0000.0001) %MON dynstat_salt_mean            =   3.4497768992413E+01
(PID.TID 0000.0001) %MON dynstat_salt_sd              =   2.7003070780213E-01
(PID.TID 0000.0001) %MON dynstat_salt_del2            =   2.7279527084626E-06
(PID.TID 0000.0001) %MON advcfl_uvel_max              =   7.9726922694622E-03
(PID.TID 0000.0001) %MON advcfl_vvel_max              =   4.0946444490994E-03
(PID.TID 0000.0001) %MON advcfl_wvel_max              =   1.5905318205165E-02
(PID.TID 0000.0001) %MON advcfl_W_hf_max              =   1.5905318205165E-02
(PID.TID 0000.0001) %MON pe_b_mean                    =  -6.8070977181767E-01
(PID.TID 0000.0001) %MON ke_max                       =   3.0301371478062E-03
(PID.TID 0000.0001) %MON ke_mean                      =   3.2134664351967E-06
(PID.TID 0000.0001) %MON ke_vol                       =   4.6183317090553E+12
(PID.TID 0000.0001) // =======================================================
(PID.TID 0000.0001) // End MONITOR dynamic field statistics
(PID.TID 0000.0001) // =======================================================
(PID.TID 0000.0001) // =======================================================
(PID.TID 0000.0001) // Begin OBCS MONITOR field statistics
(PID.TID 0000.0001) // =======================================================
(PID.TID 0000.0001) %MON obc_N_vVel_max               =   1.2565783125023E-07
(PID.TID 0000.0001) %MON obc_N_vVel_min               =   1.2565783125023E-07
(PID.TID 0000.0001) %MON obc_N_vVel_mean              =   1.2565783125023E-07
(PID.TID 0000.0001) %MON obc_N_vVel_sd                =   3.2898589057332E-14
(PID.TID 0000.0001) %MON obc_N_vVel_Int               =   8.2934168625153E+00
(PID.TID 0000.0001) // =======================================================
(PID.TID 0000.0001) // End OBCS MONITOR field statistics
(PID.TID 0000.0001) // =======================================================
 cg2d: Sum(rhs),rhsMax =   3.00360581505149E+00  4.53035119608220E+02
(PID.TID 0000.0001)      cg2d_init_res =   7.43885608012464E-06
(PID.TID 0000.0001)      cg2d_iters(min,last) =      -1      80
(PID.TID 0000.0001)      cg2d_last_res =   8.66511454192309E-12
(PID.TID 0000.0001) // =======================================================
(PID.TID 0000.0001) // Begin MONITOR dynamic field statistics
(PID.TID 0000.0001) // =======================================================
(PID.TID 0000.0001) %MON time_tsnumber                =                  1620
(PID.TID 0000.0001) %MON time_secondsf                =   1.6200000000000E+05
(PID.TID 0000.0001) %MON dynstat_eta_max              =   5.8001077494974E+00
(PID.TID 0000.0001) %MON dynstat_eta_min              =  -1.4163580338353E+01
(PID.TID 0000.0001) %MON dynstat_eta_mean             =  -2.5198868882922E+00
(PID.TID 0000.0001) %MON dynstat_eta_sd               =   4.9398722319896E+00
(PID.TID 0000.0001) %MON dynstat_eta_del2             =   1.9060029475282E-01
(PID.TID 0000.0001) %MON dynstat_uvel_max             =   1.7799614359178E-02
(PID.TID 0000.0001) %MON dynstat_uvel_min             =  -7.9866899023017E-02
(PID.TID 0000.0001) %MON dynstat_uvel_mean            =   8.5177737790826E-09
(PID.TID 0000.0001) %MON dynstat_uvel_sd              =   2.3589701674239E-03
(PID.TID 0000.0001) %MON dynstat_uvel_del2            =   3.7689330122263E-06
(PID.TID 0000.0001) %MON dynstat_vvel_max             =   4.0988650214985E-02
(PID.TID 0000.0001) %MON dynstat_vvel_min             =  -2.5541929891045E-02
(PID.TID 0000.0001) %MON dynstat_vvel_mean            =   1.9059044756232E-07
(PID.TID 0000.0001) %MON dynstat_vvel_sd              =   9.9576929333453E-04
(PID.TID 0000.0001) %MON dynstat_vvel_del2            =   2.5071125541329E-06
(PID.TID 0000.0001) %MON dynstat_wvel_max             =   2.8040458880033E-03
(PID.TID 0000.0001) %MON dynstat_wvel_min             =  -3.1811059678978E-03
(PID.TID 0000.0001) %MON dynstat_wvel_mean            =   5.9810785941118E-10
(PID.TID 0000.0001) %MON dynstat_wvel_sd              =   4.7929899150299E-05
(PID.TID 0000.0001) %MON dynstat_wvel_del2            =   1.7278379920883E-07
(PID.TID 0000.0001) %MON dynstat_theta_max            =   1.2000000000000E+00
(PID.TID 0000.0001) %MON dynstat_theta_min            =  -1.0000000000000E+00
(PID.TID 0000.0001) %MON dynstat_theta_mean           =   5.6463565610841E-01
(PID.TID 0000.0001) %MON dynstat_theta_sd             =   8.4872041622865E-01
(PID.TID 0000.0001) %MON dynstat_theta_del2           =   6.8893193596818E-06
(PID.TID 0000.0001) %MON dynstat_salt_max             =   3.4700000000000E+01
(PID.TID 0000.0001) %MON dynstat_salt_min             =   3.4000000000000E+01
(PID.TID 0000.0001) %MON dynstat_salt_mean            =   3.4497768378366E+01
(PID.TID 0000.0001) %MON dynstat_salt_sd              =   2.7003046730523E-01
(PID.TID 0000.0001) %MON dynstat_salt_del2            =   2.7321397061447E-06
(PID.TID 0000.0001) %MON advcfl_uvel_max              =   7.9866899023017E-03
(PID.TID 0000.0001) %MON advcfl_vvel_max              =   4.0988650214985E-03
(PID.TID 0000.0001) %MON advcfl_wvel_max              =   1.5905529839489E-02
(PID.TID 0000.0001) %MON advcfl_W_hf_max              =   1.5905529839489E-02
(PID.TID 0000.0001) %MON pe_b_mean                    =  -6.8070562958625E-01
(PID.TID 0000.0001) %MON ke_max                       =   3.0411280183380E-03
(PID.TID 0000.0001) %MON ke_mean                      =   3.2258301238921E-06
(PID.TID 0000.0001) %MON ke_vol                       =   4.6183317904016E+12
(PID.TID 0000.0001) // =======================================================
(PID.TID 0000.0001) // End MONITOR dynamic field statistics
(PID.TID 0000.0001) // =======================================================
(PID.TID 0000.0001) // =======================================================
(PID.TID 0000.0001) // Begin OBCS MONITOR field statistics
(PID.TID 0000.0001) // =======================================================
(PID.TID 0000.0001) %MON obc_N_vVel_max               =   1.2436191004343E-07
(PID.TID 0000.0001) %MON obc_N_vVel_min               =   1.2436191004342E-07
(PID.TID 0000.0001) %MON obc_N_vVel_mean              =   1.2436191004343E-07
(PID.TID 0000.0001) %MON obc_N_vVel_sd                =  -1.5871881413047E-27
(PID.TID 0000.0001) %MON obc_N_vVel_Int               =   8.2078860628664E+00
(PID.TID 0000.0001) // =======================================================
(PID.TID 0000.0001) // End OBCS MONITOR field statistics
(PID.TID 0000.0001) // =======================================================
 cg2d: Sum(rhs),rhsMax =   3.00358960501527E+00  4.53035094269805E+02
(PID.TID 0000.0001)      cg2d_init_res =   7.44904575265153E-06
(PID.TID 0000.0001)      cg2d_iters(min,last) =      -1      80
(PID.TID 0000.0001)      cg2d_last_res =   8.68009997006416E-12
(PID.TID 0000.0001) // =======================================================
(PID.TID 0000.0001) // Begin MONITOR dynamic field statistics
(PID.TID 0000.0001) // =======================================================
(PID.TID 0000.0001) %MON time_tsnumber                =                  1621
(PID.TID 0000.0001) %MON time_secondsf                =   1.6210000000000E+05
(PID.TID 0000.0001) %MON dynstat_eta_max              =   5.8001116943424E+00
(PID.TID 0000.0001) %MON dynstat_eta_min              =  -1.4163576694637E+01
(PID.TID 0000.0001) %MON dynstat_eta_mean             =  -2.5198731478813E+00
(PID.TID 0000.0001) %MON dynstat_eta_sd               =   4.9398682485875E+00
(PID.TID 0000.0001) %MON dynstat_eta_del2             =   1.9060033526582E-01
(PID.TID 0000.0001) %MON dynstat_uvel_max             =   1.7831999890870E-02
(PID.TID 0000.0001) %MON dynstat_uvel_min             =  -8.0006959973456E-02
(PID.TID 0000.0001) %MON dynstat_uvel_mean            =   8.5394949256140E-09
(PID.TID 0000.0001) %MON dynstat_uvel_sd              =   2.3635608548947E-03
(PID.TID 0000.0001) %MON dynstat_uvel_del2            =   3.7770226445700E-06
(PID.TID 0000.0001) %MON dynstat_vvel_max             =   4.1030842310196E-02
(PID.TID 0000.0001) %MON dynstat_vvel_min             =  -2.5603615703474E-02
(PID.TID 0000.0001) %MON dynstat_vvel_mean            =   1.8918640998494E-07
(PID.TID 0000.0001) %MON dynstat_vvel_sd              =   9.9754153647277E-04
(PID.TID 0000.0001) %MON dynstat_vvel_del2            =   2.5110333158263E-06
(PID.TID 0000.0001) %MON dynstat_wvel_max             =   2.8075129329392E-03
(PID.TID 0000.0001) %MON dynstat_wvel_min             =  -3.1811208048652E-03
(PID.TID 0000.0001) %MON dynstat_wvel_mean            =   5.9879961203526E-10
(PID.TID 0000.0001) %MON dynstat_wvel_sd              =   4.7993160591477E-05
(PID.TID 0000.0001) %MON dynstat_wvel_del2            =   1.7297443815861E-07
(PID.TID 0000.0001) %MON dynstat_theta_max            =   1.2000000000000E+00
(PID.TID 0000.0001) %MON dynstat_theta_min            =  -1.0000000000000E+00
(PID.TID 0000.0001) %MON dynstat_theta_mean           =   5.6463411850839E-01
(PID.TID 0000.0001) %MON dynstat_theta_sd             =   8.4871976533975E-01
(PID.TID 0000.0001) %MON dynstat_theta_del2           =   6.8998254463478E-06
(PID.TID 0000.0001) %MON dynstat_salt_max             =   3.4700000000000E+01
(PID.TID 0000.0001) %MON dynstat_salt_min             =   3.4000000000000E+01
(PID.TID 0000.0001) %MON dynstat_salt_mean            =   3.4497767763372E+01
(PID.TID 0000.0001) %MON dynstat_salt_sd              =   2.7003022655512E-01
(PID.TID 0000.0001) %MON dynstat_salt_del2            =   2.7363302389009E-06
(PID.TID 0000.0001) %MON advcfl_uvel_max              =   8.0006959973456E-03
(PID.TID 0000.0001) %MON advcfl_vvel_max              =   4.1030842310196E-03
(PID.TID 0000.0001) %MON advcfl_wvel_max              =   1.5905604024326E-02
(PID.TID 0000.0001) %MON advcfl_W_hf_max              =   1.5905604024326E-02
(PID.TID 0000.0001) %MON pe_b_mean                    =  -6.8070148058106E-01
(PID.TID 0000.0001) %MON ke_max                       =   3.0521391161627E-03
(PID.TID 0000.0001) %MON ke_mean                      =   3.2382324511368E-06
(PID.TID 0000.0001) %MON ke_vol                       =   4.6183318718835E+12
(PID.TID 0000.0001) // =======================================================
(PID.TID 0000.0001) // End MONITOR dynamic field statistics
(PID.TID 0000.0001) // =======================================================
(PID.TID 0000.0001) // =======================================================
(PID.TID 0000.0001) // Begin OBCS MONITOR field statistics
(PID.TID 0000.0001) // =======================================================
(PID.TID 0000.0001) %MON obc_N_vVel_max               =   1.2298710337472E-07
(PID.TID 0000.0001) %MON obc_N_vVel_min               =   1.2298710337471E-07
(PID.TID 0000.0001) %MON obc_N_vVel_mean              =   1.2298710337471E-07
(PID.TID 0000.0001) %MON obc_N_vVel_sd                =   2.7519201823675E-14
(PID.TID 0000.0001) %MON obc_N_vVel_Int               =   8.1171488227309E+00
(PID.TID 0000.0001) // =======================================================
(PID.TID 0000.0001) // End OBCS MONITOR field statistics
(PID.TID 0000.0001) // =======================================================
 cg2d: Sum(rhs),rhsMax =   3.00357336802621E+00  4.53035068865148E+02
(PID.TID 0000.0001)      cg2d_init_res =   7.45919003183134E-06
(PID.TID 0000.0001)      cg2d_iters(min,last) =      -1      80
(PID.TID 0000.0001)      cg2d_last_res =   8.69494558429135E-12
(PID.TID 0000.0001) // =======================================================
(PID.TID 0000.0001) // Begin MONITOR dynamic field statistics
(PID.TID 0000.0001) // =======================================================
(PID.TID 0000.0001) %MON time_tsnumber                =                  1622
(PID.TID 0000.0001) %MON time_secondsf                =   1.6220000000000E+05
(PID.TID 0000.0001) %MON dynstat_eta_max              =   5.8001156441605E+00
(PID.TID 0000.0001) %MON dynstat_eta_min              =  -1.4163573046244E+01
(PID.TID 0000.0001) %MON dynstat_eta_mean             =  -2.5198593844913E+00
(PID.TID 0000.0001) %MON dynstat_eta_sd               =   4.9398642581773E+00
(PID.TID 0000.0001) %MON dynstat_eta_del2             =   1.9060037582820E-01
(PID.TID 0000.0001) %MON dynstat_uvel_max             =   1.7864400773956E-02
(PID.TID 0000.0001) %MON dynstat_uvel_min             =  -8.0147105291498E-02
(PID.TID 0000.0001) %MON dynstat_uvel_mean            =   8.5593582589177E-09
(PID.TID 0000.0001) %MON dynstat_uvel_sd              =   2.3681568642884E-03
(PID.TID 0000.0001) %MON dynstat_uvel_del2            =   3.7851256437432E-06
(PID.TID 0000.0001) %MON dynstat_vvel_max             =   4.1073020648834E-02
(PID.TID 0000.0001) %MON dynstat_vvel_min             =  -2.5665360292138E-02
(PID.TID 0000.0001) %MON dynstat_vvel_mean            =   1.8776766652951E-07
(PID.TID 0000.0001) %MON dynstat_vvel_sd              =   9.9931632792347E-04
(PID.TID 0000.0001) %MON dynstat_vvel_del2            =   2.5149584287798E-06
(PID.TID 0000.0001) %MON dynstat_wvel_max             =   2.8109773430382E-03
(PID.TID 0000.0001) %MON dynstat_wvel_min             =  -3.1811082652352E-03
(PID.TID 0000.0001) %MON dynstat_wvel_mean            =   5.9979004873546E-10
(PID.TID 0000.0001) %MON dynstat_wvel_sd              =   4.8056661732918E-05
(PID.TID 0000.0001) %MON dynstat_wvel_del2            =   1.7316569364987E-07
(PID.TID 0000.0001) %MON dynstat_theta_max            =   1.2000000000000E+00
(PID.TID 0000.0001) %MON dynstat_theta_min            =  -1.0000000000000E+00
(PID.TID 0000.0001) %MON dynstat_theta_mean           =   5.6463257854311E-01
(PID.TID 0000.0001) %MON dynstat_theta_sd             =   8.4871911368867E-01
(PID.TID 0000.0001) %MON dynstat_theta_del2           =   6.9103399066144E-06
(PID.TID 0000.0001) %MON dynstat_salt_max             =   3.4700000000000E+01
(PID.TID 0000.0001) %MON dynstat_salt_min             =   3.4000000000000E+01
(PID.TID 0000.0001) %MON dynstat_salt_mean            =   3.4497767147432E+01
(PID.TID 0000.0001) %MON dynstat_salt_sd              =   2.7002998555194E-01
(PID.TID 0000.0001) %MON dynstat_salt_del2            =   2.7405242753798E-06
(PID.TID 0000.0001) %MON advcfl_uvel_max              =   8.0147105291498E-03
(PID.TID 0000.0001) %MON advcfl_vvel_max              =   4.1073020648834E-03
(PID.TID 0000.0001) %MON advcfl_wvel_max              =   1.5905541326176E-02
(PID.TID 0000.0001) %MON advcfl_W_hf_max              =   1.5905541326176E-02
(PID.TID 0000.0001) %MON pe_b_mean                    =  -6.8069732479719E-01
(PID.TID 0000.0001) %MON ke_max                       =   3.0631703634661E-03
(PID.TID 0000.0001) %MON ke_mean                      =   3.2506735101034E-06
(PID.TID 0000.0001) %MON ke_vol                       =   4.6183319535016E+12
(PID.TID 0000.0001) // =======================================================
(PID.TID 0000.0001) // End MONITOR dynamic field statistics
(PID.TID 0000.0001) // =======================================================
(PID.TID 0000.0001) // =======================================================
(PID.TID 0000.0001) // Begin OBCS MONITOR field statistics
(PID.TID 0000.0001) // =======================================================
(PID.TID 0000.0001) %MON obc_N_vVel_max               =   1.2157212508565E-07
(PID.TID 0000.0001) %MON obc_N_vVel_min               =   1.2157212508565E-07
(PID.TID 0000.0001) %MON obc_N_vVel_mean              =   1.2157212508565E-07
(PID.TID 0000.0001) %MON obc_N_vVel_sd                =  -9.0876776281461E-28
(PID.TID 0000.0001) %MON obc_N_vVel_Int               =   8.0237602556530E+00
(PID.TID 0000.0001) // =======================================================
(PID.TID 0000.0001) // End OBCS MONITOR field statistics
(PID.TID 0000.0001) // =======================================================
 cg2d: Sum(rhs),rhsMax =   3.00355710403148E+00  4.53035043399468E+02
(PID.TID 0000.0001)      cg2d_init_res =   7.46934265089977E-06
(PID.TID 0000.0001)      cg2d_iters(min,last) =      -1      80
(PID.TID 0000.0001)      cg2d_last_res =   8.70987356088814E-12
(PID.TID 0000.0001) // =======================================================
(PID.TID 0000.0001) // Begin MONITOR dynamic field statistics
(PID.TID 0000.0001) // =======================================================
(PID.TID 0000.0001) %MON time_tsnumber                =                  1623
(PID.TID 0000.0001) %MON time_secondsf                =   1.6230000000000E+05
(PID.TID 0000.0001) %MON dynstat_eta_max              =   5.8001195986116E+00
(PID.TID 0000.0001) %MON dynstat_eta_min              =  -1.4163569393235E+01
(PID.TID 0000.0001) %MON dynstat_eta_mean             =  -2.5198455981068E+00
(PID.TID 0000.0001) %MON dynstat_eta_sd               =   4.9398602607874E+00
(PID.TID 0000.0001) %MON dynstat_eta_del2             =   1.9060041644003E-01
(PID.TID 0000.0001) %MON dynstat_uvel_max             =   1.7896816804960E-02
(PID.TID 0000.0001) %MON dynstat_uvel_min             =  -8.0287334704458E-02
(PID.TID 0000.0001) %MON dynstat_uvel_mean            =   8.5773119503388E-09
(PID.TID 0000.0001) %MON dynstat_uvel_sd              =   2.3727581903316E-03
(PID.TID 0000.0001) %MON dynstat_uvel_del2            =   3.7932420119136E-06
(PID.TID 0000.0001) %MON dynstat_vvel_max             =   4.1115185101731E-02
(PID.TID 0000.0001) %MON dynstat_vvel_min             =  -2.5727163371545E-02
(PID.TID 0000.0001) %MON dynstat_vvel_mean            =   1.8637581907607E-07
(PID.TID 0000.0001) %MON dynstat_vvel_sd              =   1.0010936840023E-03
(PID.TID 0000.0001) %MON dynstat_vvel_del2            =   2.5188879450395E-06
(PID.TID 0000.0001) %MON dynstat_wvel_max             =   2.8144390966518E-03
(PID.TID 0000.0001) %MON dynstat_wvel_min             =  -3.1810684647735E-03
(PID.TID 0000.0001) %MON dynstat_wvel_mean            =   6.0107381346147E-10
(PID.TID 0000.0001) %MON dynstat_wvel_sd              =   4.8120448663744E-05
(PID.TID 0000.0001) %MON dynstat_wvel_del2            =   1.7335773961297E-07
(PID.TID 0000.0001) %MON dynstat_theta_max            =   1.2000000000000E+00
(PID.TID 0000.0001) %MON dynstat_theta_min            =  -1.0000000000000E+00
(PID.TID 0000.0001) %MON dynstat_theta_mean           =   5.6463103621035E-01
(PID.TID 0000.0001) %MON dynstat_theta_sd             =   8.4871846127573E-01
(PID.TID 0000.0001) %MON dynstat_theta_del2           =   6.9208625867480E-06
(PID.TID 0000.0001) %MON dynstat_salt_max             =   3.4700000000000E+01
(PID.TID 0000.0001) %MON dynstat_salt_min             =   3.4000000000000E+01
(PID.TID 0000.0001) %MON dynstat_salt_mean            =   3.4497766530543E+01
(PID.TID 0000.0001) %MON dynstat_salt_sd              =   2.7002974429602E-01
(PID.TID 0000.0001) %MON dynstat_salt_del2            =   2.7447217674429E-06
(PID.TID 0000.0001) %MON advcfl_uvel_max              =   8.0287334704458E-03
(PID.TID 0000.0001) %MON advcfl_vvel_max              =   4.1115185101731E-03
(PID.TID 0000.0001) %MON advcfl_wvel_max              =   1.5905342323868E-02
(PID.TID 0000.0001) %MON advcfl_W_hf_max              =   1.5905342323868E-02
(PID.TID 0000.0001) %MON pe_b_mean                    =  -6.8069316223855E-01
(PID.TID 0000.0001) %MON ke_max                       =   3.0742216825494E-03
(PID.TID 0000.0001) %MON ke_mean                      =   3.2631533904227E-06
(PID.TID 0000.0001) %MON ke_vol                       =   4.6183320352561E+12
(PID.TID 0000.0001) // =======================================================
(PID.TID 0000.0001) // End MONITOR dynamic field statistics
(PID.TID 0000.0001) // =======================================================
(PID.TID 0000.0001) // =======================================================
(PID.TID 0000.0001) // Begin OBCS MONITOR field statistics
(PID.TID 0000.0001) // =======================================================
(PID.TID 0000.0001) %MON obc_N_vVel_max               =   1.2015627027893E-07
(PID.TID 0000.0001) %MON obc_N_vVel_min               =   1.2015627027893E-07
(PID.TID 0000.0001) %MON obc_N_vVel_mean              =   1.2015627027893E-07
(PID.TID 0000.0001) %MON obc_N_vVel_sd                =   3.1174936010075E-14
(PID.TID 0000.0001) %MON obc_N_vVel_Int               =   7.9303138384091E+00
(PID.TID 0000.0001) // =======================================================
(PID.TID 0000.0001) // End OBCS MONITOR field statistics
(PID.TID 0000.0001) // =======================================================
 cg2d: Sum(rhs),rhsMax =   3.00354081302657E+00  4.53035017878473E+02
(PID.TID 0000.0001)      cg2d_init_res =   7.47949332854123E-06
(PID.TID 0000.0001)      cg2d_iters(min,last) =      -1      80
(PID.TID 0000.0001)      cg2d_last_res =   8.72481344377010E-12
(PID.TID 0000.0001) // =======================================================
(PID.TID 0000.0001) // Begin MONITOR dynamic field statistics
(PID.TID 0000.0001) // =======================================================
(PID.TID 0000.0001) %MON time_tsnumber                =                  1624
(PID.TID 0000.0001) %MON time_secondsf                =   1.6240000000000E+05
(PID.TID 0000.0001) %MON dynstat_eta_max              =   5.8001235572885E+00
(PID.TID 0000.0001) %MON dynstat_eta_min              =  -1.4163565735720E+01
(PID.TID 0000.0001) %MON dynstat_eta_mean             =  -2.5198317887559E+00
(PID.TID 0000.0001) %MON dynstat_eta_sd               =   4.9398562564596E+00
(PID.TID 0000.0001) %MON dynstat_eta_del2             =   1.9060045710133E-01
(PID.TID 0000.0001) %MON dynstat_uvel_max             =   1.7929247778776E-02
(PID.TID 0000.0001) %MON dynstat_uvel_min             =  -8.0427647933455E-02
(PID.TID 0000.0001) %MON dynstat_uvel_mean            =   8.5933599104148E-09
(PID.TID 0000.0001) %MON dynstat_uvel_sd              =   2.3773648276950E-03
(PID.TID 0000.0001) %MON dynstat_uvel_del2            =   3.8013717511718E-06
(PID.TID 0000.0001) %MON dynstat_vvel_max             =   4.1157335538250E-02
(PID.TID 0000.0001) %MON dynstat_vvel_min             =  -2.5789024655307E-02
(PID.TID 0000.0001) %MON dynstat_vvel_mean            =   1.8505146934694E-07
(PID.TID 0000.0001) %MON dynstat_vvel_sd              =   1.0028736169305E-03
(PID.TID 0000.0001) %MON dynstat_vvel_del2            =   2.5228219060122E-06
(PID.TID 0000.0001) %MON dynstat_wvel_max             =   2.8178981721805E-03
(PID.TID 0000.0001) %MON dynstat_wvel_min             =  -3.1810015214515E-03
(PID.TID 0000.0001) %MON dynstat_wvel_mean            =   6.0263912360560E-10
(PID.TID 0000.0001) %MON dynstat_wvel_sd              =   4.8184554914947E-05
(PID.TID 0000.0001) %MON dynstat_wvel_del2            =   1.7355073417251E-07
(PID.TID 0000.0001) %MON dynstat_theta_max            =   1.2000000000000E+00
(PID.TID 0000.0001) %MON dynstat_theta_min            =  -1.0000000000000E+00
(PID.TID 0000.0001) %MON dynstat_theta_mean           =   5.6462949150783E-01
(PID.TID 0000.0001) %MON dynstat_theta_sd             =   8.4871780810049E-01
(PID.TID 0000.0001) %MON dynstat_theta_del2           =   6.9313933442980E-06
(PID.TID 0000.0001) %MON dynstat_salt_max             =   3.4700000000000E+01
(PID.TID 0000.0001) %MON dynstat_salt_min             =   3.4000000000000E+01
(PID.TID 0000.0001) %MON dynstat_salt_mean            =   3.4497765912705E+01
(PID.TID 0000.0001) %MON dynstat_salt_sd              =   2.7002950278725E-01
(PID.TID 0000.0001) %MON dynstat_salt_del2            =   2.7489226787718E-06
(PID.TID 0000.0001) %MON advcfl_uvel_max              =   8.0427647933455E-03
(PID.TID 0000.0001) %MON advcfl_vvel_max              =   4.1157335538250E-03
(PID.TID 0000.0001) %MON advcfl_wvel_max              =   1.5905007607258E-02
(PID.TID 0000.0001) %MON advcfl_W_hf_max              =   1.5905007607258E-02
(PID.TID 0000.0001) %MON pe_b_mean                    =  -6.8068899291766E-01
(PID.TID 0000.0001) %MON ke_max                       =   3.0852929958735E-03
(PID.TID 0000.0001) %MON ke_mean                      =   3.2756721776120E-06
(PID.TID 0000.0001) %MON ke_vol                       =   4.6183321171472E+12
(PID.TID 0000.0001) // =======================================================
(PID.TID 0000.0001) // End MONITOR dynamic field statistics
(PID.TID 0000.0001) // =======================================================
(PID.TID 0000.0001) // =======================================================
(PID.TID 0000.0001) // Begin OBCS MONITOR field statistics
(PID.TID 0000.0001) // =======================================================
(PID.TID 0000.0001) %MON obc_N_vVel_max               =   1.1877848880164E-07
(PID.TID 0000.0001) %MON obc_N_vVel_min               =   1.1877848880163E-07
(PID.TID 0000.0001) %MON obc_N_vVel_mean              =   1.1877848880164E-07
(PID.TID 0000.0001) %MON obc_N_vVel_sd                =  -7.0050848383626E-28
(PID.TID 0000.0001) %MON obc_N_vVel_Int               =   7.8393802609080E+00
(PID.TID 0000.0001) // =======================================================
(PID.TID 0000.0001) // End OBCS MONITOR field statistics
(PID.TID 0000.0001) // =======================================================
 cg2d: Sum(rhs),rhsMax =   3.00352449505492E+00  4.53034992308214E+02
(PID.TID 0000.0001)      cg2d_init_res =   7.48964139587127E-06
(PID.TID 0000.0001)      cg2d_iters(min,last) =      -1      80
(PID.TID 0000.0001)      cg2d_last_res =   8.73976061160230E-12
(PID.TID 0000.0001) // =======================================================
(PID.TID 0000.0001) // Begin MONITOR dynamic field statistics
(PID.TID 0000.0001) // =======================================================
(PID.TID 0000.0001) %MON time_tsnumber                =                  1625
(PID.TID 0000.0001) %MON time_secondsf                =   1.6250000000000E+05
(PID.TID 0000.0001) %MON dynstat_eta_max              =   5.8001275197237E+00
(PID.TID 0000.0001) %MON dynstat_eta_min              =  -1.4163562073900E+01
(PID.TID 0000.0001) %MON dynstat_eta_mean             =  -2.5198179565088E+00
(PID.TID 0000.0001) %MON dynstat_eta_sd               =   4.9398522452481E+00
(PID.TID 0000.0001) %MON dynstat_eta_del2             =   1.9060049781215E-01
(PID.TID 0000.0001) %MON dynstat_uvel_max             =   1.7961693490194E-02
(PID.TID 0000.0001) %MON dynstat_uvel_min             =  -8.0568044688928E-02
(PID.TID 0000.0001) %MON dynstat_uvel_mean            =   8.6075616726786E-09
(PID.TID 0000.0001) %MON dynstat_uvel_sd              =   2.3819767709903E-03
(PID.TID 0000.0001) %MON dynstat_uvel_del2            =   3.8095148633848E-06
(PID.TID 0000.0001) %MON dynstat_vvel_max             =   4.1199471826065E-02
(PID.TID 0000.0001) %MON dynstat_vvel_min             =  -2.5850943854838E-02
(PID.TID 0000.0001) %MON dynstat_vvel_mean            =   1.8383328177089E-07
(PID.TID 0000.0001) %MON dynstat_vvel_sd              =   1.0046561344126E-03
(PID.TID 0000.0001) %MON dynstat_vvel_del2            =   2.5267603401553E-06
(PID.TID 0000.0001) %MON dynstat_wvel_max             =   2.8213545481716E-03
(PID.TID 0000.0001) %MON dynstat_wvel_min             =  -3.1809075580897E-03
(PID.TID 0000.0001) %MON dynstat_wvel_mean            =   6.0446745122409E-10
(PID.TID 0000.0001) %MON dynstat_wvel_sd              =   4.8248999894267E-05
(PID.TID 0000.0001) %MON dynstat_wvel_del2            =   1.7374481217913E-07
(PID.TID 0000.0001) %MON dynstat_theta_max            =   1.2000000000000E+00
(PID.TID 0000.0001) %MON dynstat_theta_min            =  -1.0000000000000E+00
(PID.TID 0000.0001) %MON dynstat_theta_mean           =   5.6462794443325E-01
(PID.TID 0000.0001) %MON dynstat_theta_sd             =   8.4871715416309E-01
(PID.TID 0000.0001) %MON dynstat_theta_del2           =   6.9419320840913E-06
(PID.TID 0000.0001) %MON dynstat_salt_max             =   3.4700000000000E+01
(PID.TID 0000.0001) %MON dynstat_salt_min             =   3.4000000000000E+01
(PID.TID 0000.0001) %MON dynstat_salt_mean            =   3.4497765293918E+01
(PID.TID 0000.0001) %MON dynstat_salt_sd              =   2.7002926102603E-01
(PID.TID 0000.0001) %MON dynstat_salt_del2            =   2.7531269830557E-06
(PID.TID 0000.0001) %MON advcfl_uvel_max              =   8.0568044688928E-03
(PID.TID 0000.0001) %MON advcfl_vvel_max              =   4.1199471826065E-03
(PID.TID 0000.0001) %MON advcfl_wvel_max              =   1.5904537790448E-02
(PID.TID 0000.0001) %MON advcfl_W_hf_max              =   1.5904537790448E-02
(PID.TID 0000.0001) %MON pe_b_mean                    =  -6.8068481685517E-01
(PID.TID 0000.0001) %MON ke_max                       =   3.0963842260625E-03
(PID.TID 0000.0001) %MON ke_mean                      =   3.2882299526066E-06
(PID.TID 0000.0001) %MON ke_vol                       =   4.6183321991748E+12
(PID.TID 0000.0001) // =======================================================
(PID.TID 0000.0001) // End MONITOR dynamic field statistics
(PID.TID 0000.0001) // =======================================================
(PID.TID 0000.0001) // =======================================================
(PID.TID 0000.0001) // Begin OBCS MONITOR field statistics
(PID.TID 0000.0001) // =======================================================
(PID.TID 0000.0001) %MON obc_N_vVel_max               =   1.1747651152593E-07
(PID.TID 0000.0001) %MON obc_N_vVel_min               =   1.1747651152593E-07
(PID.TID 0000.0001) %MON obc_N_vVel_mean              =   1.1747651152593E-07
(PID.TID 0000.0001) %MON obc_N_vVel_sd                =  -8.9930143195195E-29
(PID.TID 0000.0001) %MON obc_N_vVel_Int               =   7.7534497607116E+00
(PID.TID 0000.0001) // =======================================================
(PID.TID 0000.0001) // End OBCS MONITOR field statistics
(PID.TID 0000.0001) // =======================================================
 cg2d: Sum(rhs),rhsMax =   3.00350815020585E+00  4.53034966694948E+02
(PID.TID 0000.0001)      cg2d_init_res =   7.49978788860048E-06
(PID.TID 0000.0001)      cg2d_iters(min,last) =      -1      80
(PID.TID 0000.0001)      cg2d_last_res =   8.75471194313061E-12
(PID.TID 0000.0001) // =======================================================
(PID.TID 0000.0001) // Begin MONITOR dynamic field statistics
(PID.TID 0000.0001) // =======================================================
(PID.TID 0000.0001) %MON time_tsnumber                =                  1626
(PID.TID 0000.0001) %MON time_secondsf                =   1.6260000000000E+05
(PID.TID 0000.0001) %MON dynstat_eta_max              =   5.8001314853883E+00
(PID.TID 0000.0001) %MON dynstat_eta_min              =  -1.4163558408015E+01
(PID.TID 0000.0001) %MON dynstat_eta_mean             =  -2.5198041014750E+00
(PID.TID 0000.0001) %MON dynstat_eta_sd               =   4.9398482272183E+00
(PID.TID 0000.0001) %MON dynstat_eta_del2             =   1.9060053857261E-01
(PID.TID 0000.0001) %MON dynstat_uvel_max             =   1.7994153733430E-02
(PID.TID 0000.0001) %MON dynstat_uvel_min             =  -8.0708524671774E-02
(PID.TID 0000.0001) %MON dynstat_uvel_mean            =   8.6200279952426E-09
(PID.TID 0000.0001) %MON dynstat_uvel_sd              =   2.3865940147687E-03
(PID.TID 0000.0001) %MON dynstat_uvel_del2            =   3.8176713502148E-06
(PID.TID 0000.0001) %MON dynstat_vvel_max             =   4.1241593831099E-02
(PID.TID 0000.0001) %MON dynstat_vvel_min             =  -2.5912920680383E-02
(PID.TID 0000.0001) %MON dynstat_vvel_mean            =   1.8275709905458E-07
(PID.TID 0000.0001) %MON dynstat_vvel_sd              =   1.0064412394377E-03
(PID.TID 0000.0001) %MON dynstat_vvel_del2            =   2.5307032613074E-06
(PID.TID 0000.0001) %MON dynstat_wvel_max             =   2.8248082032838E-03
(PID.TID 0000.0001) %MON dynstat_wvel_min             =  -3.1807867042123E-03
(PID.TID 0000.0001) %MON dynstat_wvel_mean            =   6.0653454931887E-10
(PID.TID 0000.0001) %MON dynstat_wvel_sd              =   4.8313787914935E-05
(PID.TID 0000.0001) %MON dynstat_wvel_del2            =   1.7394007801274E-07
(PID.TID 0000.0001) %MON dynstat_theta_max            =   1.2000000000000E+00
(PID.TID 0000.0001) %MON dynstat_theta_min            =  -1.0000000000000E+00
(PID.TID 0000.0001) %MON dynstat_theta_mean           =   5.6462639498427E-01
(PID.TID 0000.0001) %MON dynstat_theta_sd             =   8.4871649946262E-01
(PID.TID 0000.0001) %MON dynstat_theta_del2           =   6.9524787309599E-06
(PID.TID 0000.0001) %MON dynstat_salt_max             =   3.4700000000000E+01
(PID.TID 0000.0001) %MON dynstat_salt_min             =   3.4000000000000E+01
(PID.TID 0000.0001) %MON dynstat_salt_mean            =   3.4497764674180E+01
(PID.TID 0000.0001) %MON dynstat_salt_sd              =   2.7002901901206E-01
(PID.TID 0000.0001) %MON dynstat_salt_del2            =   2.7573346584032E-06
(PID.TID 0000.0001) %MON advcfl_uvel_max              =   8.0708524671774E-03
(PID.TID 0000.0001) %MON advcfl_vvel_max              =   4.1241593831099E-03
(PID.TID 0000.0001) %MON advcfl_wvel_max              =   1.5903933521062E-02
(PID.TID 0000.0001) %MON advcfl_W_hf_max              =   1.5903933521062E-02
(PID.TID 0000.0001) %MON pe_b_mean                    =  -6.8068063407920E-01
(PID.TID 0000.0001) %MON ke_max                       =   3.1074952959411E-03
(PID.TID 0000.0001) %MON ke_mean                      =   3.3008267915132E-06
(PID.TID 0000.0001) %MON ke_vol                       =   4.6183322813383E+12
(PID.TID 0000.0001) // =======================================================
(PID.TID 0000.0001) // End MONITOR dynamic field statistics
(PID.TID 0000.0001) // =======================================================
(PID.TID 0000.0001) // =======================================================
(PID.TID 0000.0001) // Begin OBCS MONITOR field statistics
(PID.TID 0000.0001) // =======================================================
(PID.TID 0000.0001) %MON obc_N_vVel_max               =   1.1628594579605E-07
(PID.TID 0000.0001) %MON obc_N_vVel_min               =   1.1628594579605E-07
(PID.TID 0000.0001) %MON obc_N_vVel_mean              =   1.1628594579605E-07
(PID.TID 0000.0001) %MON obc_N_vVel_sd                =   1.8841109504205E-14
(PID.TID 0000.0001) %MON obc_N_vVel_Int               =   7.6748724225394E+00
(PID.TID 0000.0001) // =======================================================
(PID.TID 0000.0001) // End OBCS MONITOR field statistics
(PID.TID 0000.0001) // =======================================================
 cg2d: Sum(rhs),rhsMax =   3.00349177861144E+00  4.53034941045003E+02
(PID.TID 0000.0001)      cg2d_init_res =   7.50993271794916E-06
(PID.TID 0000.0001)      cg2d_iters(min,last) =      -1      80
(PID.TID 0000.0001)      cg2d_last_res =   8.76966131031376E-12
(PID.TID 0000.0001) // =======================================================
(PID.TID 0000.0001) // Begin MONITOR dynamic field statistics
(PID.TID 0000.0001) // =======================================================
(PID.TID 0000.0001) %MON time_tsnumber                =                  1627
(PID.TID 0000.0001) %MON time_secondsf                =   1.6270000000000E+05
(PID.TID 0000.0001) %MON dynstat_eta_max              =   5.8001354536940E+00
(PID.TID 0000.0001) %MON dynstat_eta_min              =  -1.4163554738381E+01
(PID.TID 0000.0001) %MON dynstat_eta_mean             =  -2.5197902238007E+00
(PID.TID 0000.0001) %MON dynstat_eta_sd               =   4.9398442024438E+00
(PID.TID 0000.0001) %MON dynstat_eta_del2             =   1.9060057938279E-01
(PID.TID 0000.0001) %MON dynstat_uvel_max             =   1.8026628301995E-02
(PID.TID 0000.0001) %MON dynstat_uvel_min             =  -8.0849087573352E-02
(PID.TID 0000.0001) %MON dynstat_uvel_mean            =   8.6309135635335E-09
(PID.TID 0000.0001) %MON dynstat_uvel_sd              =   2.3912165535192E-03
(PID.TID 0000.0001) %MON dynstat_uvel_del2            =   3.8258412131072E-06
(PID.TID 0000.0001) %MON dynstat_vvel_max             =   4.1283701417456E-02
(PID.TID 0000.0001) %MON dynstat_vvel_min             =  -2.5974954841402E-02
(PID.TID 0000.0001) %MON dynstat_vvel_mean            =   1.8185513551438E-07
(PID.TID 0000.0001) %MON dynstat_vvel_sd              =   1.0082289303077E-03
(PID.TID 0000.0001) %MON dynstat_vvel_del2            =   2.5346506680701E-06
(PID.TID 0000.0001) %MON dynstat_wvel_max             =   2.8282591162824E-03
(PID.TID 0000.0001) %MON dynstat_wvel_min             =  -3.1806390914315E-03
(PID.TID 0000.0001) %MON dynstat_wvel_mean            =   6.0881078754089E-10
(PID.TID 0000.0001) %MON dynstat_wvel_sd              =   4.8378907856475E-05
(PID.TID 0000.0001) %MON dynstat_wvel_del2            =   1.7413659905161E-07
(PID.TID 0000.0001) %MON dynstat_theta_max            =   1.2000000000000E+00
(PID.TID 0000.0001) %MON dynstat_theta_min            =  -1.0000000000000E+00
(PID.TID 0000.0001) %MON dynstat_theta_mean           =   5.6462484315851E-01
(PID.TID 0000.0001) %MON dynstat_theta_sd             =   8.4871584399803E-01
(PID.TID 0000.0001) %MON dynstat_theta_del2           =   6.9630332326612E-06
(PID.TID 0000.0001) %MON dynstat_salt_max             =   3.4700000000000E+01
(PID.TID 0000.0001) %MON dynstat_salt_min             =   3.4000000000000E+01
(PID.TID 0000.0001) %MON dynstat_salt_mean            =   3.4497764053490E+01
(PID.TID 0000.0001) %MON dynstat_salt_sd              =   2.7002877674533E-01
(PID.TID 0000.0001) %MON dynstat_salt_del2            =   2.7615456846933E-06
(PID.TID 0000.0001) %MON advcfl_uvel_max              =   8.0849087573352E-03
(PID.TID 0000.0001) %MON advcfl_vvel_max              =   4.1283701417456E-03
(PID.TID 0000.0001) %MON advcfl_wvel_max              =   1.5903195457157E-02
(PID.TID 0000.0001) %MON advcfl_W_hf_max              =   1.5903195457157E-02
(PID.TID 0000.0001) %MON pe_b_mean                    =  -6.8067644462452E-01
(PID.TID 0000.0001) %MON ke_max                       =   3.1186261285666E-03
(PID.TID 0000.0001) %MON ke_mean                      =   3.3134627655927E-06
(PID.TID 0000.0001) %MON ke_vol                       =   4.6183323636372E+12
(PID.TID 0000.0001) // =======================================================
(PID.TID 0000.0001) // End MONITOR dynamic field statistics
(PID.TID 0000.0001) // =======================================================
(PID.TID 0000.0001) // =======================================================
(PID.TID 0000.0001) // Begin OBCS MONITOR field statistics
(PID.TID 0000.0001) // =======================================================
(PID.TID 0000.0001) %MON obc_N_vVel_max               =   1.1523949838824E-07
(PID.TID 0000.0001) %MON obc_N_vVel_min               =   1.1523949838824E-07
(PID.TID 0000.0001) %MON obc_N_vVel_mean              =   1.1523949838824E-07
(PID.TID 0000.0001) %MON obc_N_vVel_sd                =   9.8903363060821E-15
(PID.TID 0000.0001) %MON obc_N_vVel_Int               =   7.6058068936235E+00
(PID.TID 0000.0001) // =======================================================
(PID.TID 0000.0001) // End OBCS MONITOR field statistics
(PID.TID 0000.0001) // =======================================================
 cg2d: Sum(rhs),rhsMax =   3.00347538044304E+00  4.53034915364608E+02
(PID.TID 0000.0001)      cg2d_init_res =   7.52007649703113E-06
(PID.TID 0000.0001)      cg2d_iters(min,last) =      -1      80
(PID.TID 0000.0001)      cg2d_last_res =   8.78460370699496E-12
(PID.TID 0000.0001) // =======================================================
(PID.TID 0000.0001) // Begin MONITOR dynamic field statistics
(PID.TID 0000.0001) // =======================================================
(PID.TID 0000.0001) %MON time_tsnumber                =                  1628
(PID.TID 0000.0001) %MON time_secondsf                =   1.6280000000000E+05
(PID.TID 0000.0001) %MON dynstat_eta_max              =   5.8001394240251E+00
(PID.TID 0000.0001) %MON dynstat_eta_min              =  -1.4163551065343E+01
(PID.TID 0000.0001) %MON dynstat_eta_mean             =  -2.5197763236642E+00
(PID.TID 0000.0001) %MON dynstat_eta_sd               =   4.9398401710049E+00
(PID.TID 0000.0001) %MON dynstat_eta_del2             =   1.9060062024271E-01
(PID.TID 0000.0001) %MON dynstat_uvel_max             =   1.8059116988847E-02
(PID.TID 0000.0001) %MON dynstat_uvel_min             =  -8.0989733075533E-02
(PID.TID 0000.0001) %MON dynstat_uvel_mean            =   8.6404073699127E-09
(PID.TID 0000.0001) %MON dynstat_uvel_sd              =   2.3958443816659E-03
(PID.TID 0000.0001) %MON dynstat_uvel_del2            =   3.8340244533449E-06
(PID.TID 0000.0001) %MON dynstat_vvel_max             =   4.1325794447304E-02
(PID.TID 0000.0001) %MON dynstat_vvel_min             =  -2.6037046046188E-02
(PID.TID 0000.0001) %MON dynstat_vvel_mean            =   1.8115526125695E-07
(PID.TID 0000.0001) %MON dynstat_vvel_sd              =   1.0100192008739E-03
(PID.TID 0000.0001) %MON dynstat_vvel_del2            =   2.5386025434990E-06
(PID.TID 0000.0001) %MON dynstat_wvel_max             =   2.8317072660466E-03
(PID.TID 0000.0001) %MON dynstat_wvel_min             =  -3.1804648539327E-03
(PID.TID 0000.0001) %MON dynstat_wvel_mean            =   6.1126191605295E-10
(PID.TID 0000.0001) %MON dynstat_wvel_sd              =   4.8444333503851E-05
(PID.TID 0000.0001) %MON dynstat_wvel_del2            =   1.7433440031785E-07
(PID.TID 0000.0001) %MON dynstat_theta_max            =   1.2000000000000E+00
(PID.TID 0000.0001) %MON dynstat_theta_min            =  -1.0000000000000E+00
(PID.TID 0000.0001) %MON dynstat_theta_mean           =   5.6462328895360E-01
(PID.TID 0000.0001) %MON dynstat_theta_sd             =   8.4871518776579E-01
(PID.TID 0000.0001) %MON dynstat_theta_del2           =   6.9735940320337E-06
(PID.TID 0000.0001) %MON dynstat_salt_max             =   3.4700000000000E+01
(PID.TID 0000.0001) %MON dynstat_salt_min             =   3.4000000000000E+01
(PID.TID 0000.0001) %MON dynstat_salt_mean            =   3.4497763431848E+01
(PID.TID 0000.0001) %MON dynstat_salt_sd              =   2.7002853422490E-01
(PID.TID 0000.0001) %MON dynstat_salt_del2            =   2.7657597420669E-06
(PID.TID 0000.0001) %MON advcfl_uvel_max              =   8.0989733075533E-03
(PID.TID 0000.0001) %MON advcfl_vvel_max              =   4.1325794447304E-03
(PID.TID 0000.0001) %MON advcfl_wvel_max              =   1.5902324269663E-02
(PID.TID 0000.0001) %MON advcfl_W_hf_max              =   1.5902324269663E-02
(PID.TID 0000.0001) %MON pe_b_mean                    =  -6.8067224853157E-01
(PID.TID 0000.0001) %MON ke_max                       =   3.1297766472685E-03
(PID.TID 0000.0001) %MON ke_mean                      =   3.3261379414474E-06
(PID.TID 0000.0001) %MON ke_vol                       =   4.6183324460706E+12
(PID.TID 0000.0001) // =======================================================
(PID.TID 0000.0001) // End MONITOR dynamic field statistics
(PID.TID 0000.0001) // =======================================================
(PID.TID 0000.0001) // =======================================================
(PID.TID 0000.0001) // Begin OBCS MONITOR field statistics
(PID.TID 0000.0001) // =======================================================
(PID.TID 0000.0001) %MON obc_N_vVel_max               =   1.1436623000927E-07
(PID.TID 0000.0001) %MON obc_N_vVel_min               =   1.1436623000927E-07
(PID.TID 0000.0001) %MON obc_N_vVel_mean              =   1.1436623000927E-07
(PID.TID 0000.0001) %MON obc_N_vVel_sd                =  -1.5934990285464E-28
(PID.TID 0000.0001) %MON obc_N_vVel_Int               =   7.5481711806116E+00
(PID.TID 0000.0001) // =======================================================
(PID.TID 0000.0001) // End OBCS MONITOR field statistics
(PID.TID 0000.0001) // =======================================================
 cg2d: Sum(rhs),rhsMax =   3.00345895590568E+00  4.53034889659804E+02
(PID.TID 0000.0001)      cg2d_init_res =   7.53021982667207E-06
(PID.TID 0000.0001)      cg2d_iters(min,last) =      -1      80
(PID.TID 0000.0001)      cg2d_last_res =   8.79953696987251E-12
(PID.TID 0000.0001) // =======================================================
(PID.TID 0000.0001) // Begin MONITOR dynamic field statistics
(PID.TID 0000.0001) // =======================================================
(PID.TID 0000.0001) %MON time_tsnumber                =                  1629
(PID.TID 0000.0001) %MON time_secondsf                =   1.6290000000000E+05
(PID.TID 0000.0001) %MON dynstat_eta_max              =   5.8001433957264E+00
(PID.TID 0000.0001) %MON dynstat_eta_min              =  -1.4163547389290E+01
(PID.TID 0000.0001) %MON dynstat_eta_mean             =  -2.5197624012713E+00
(PID.TID 0000.0001) %MON dynstat_eta_sd               =   4.9398361329872E+00
(PID.TID 0000.0001) %MON dynstat_eta_del2             =   1.9060066115253E-01
(PID.TID 0000.0001) %MON dynstat_uvel_max             =   1.8091619586364E-02
(PID.TID 0000.0001) %MON dynstat_uvel_min             =  -8.1130460850495E-02
(PID.TID 0000.0001) %MON dynstat_uvel_mean            =   8.6487294862513E-09
(PID.TID 0000.0001) %MON dynstat_uvel_sd              =   2.4004774935739E-03
(PID.TID 0000.0001) %MON dynstat_uvel_del2            =   3.8422210717007E-06
(PID.TID 0000.0001) %MON dynstat_vvel_max             =   4.1367872780811E-02
(PID.TID 0000.0001) %MON dynstat_vvel_min             =  -2.6099194002370E-02
(PID.TID 0000.0001) %MON dynstat_vvel_mean            =   1.8068041606632E-07
(PID.TID 0000.0001) %MON dynstat_vvel_sd              =   1.0118120412759E-03
(PID.TID 0000.0001) %MON dynstat_vvel_del2            =   2.5425588567121E-06
(PID.TID 0000.0001) %MON dynstat_wvel_max             =   2.8351526315891E-03
(PID.TID 0000.0001) %MON dynstat_wvel_min             =  -3.1802641325868E-03
(PID.TID 0000.0001) %MON dynstat_wvel_mean            =   6.1385067474731E-10
(PID.TID 0000.0001) %MON dynstat_wvel_sd              =   4.8510024595024E-05
(PID.TID 0000.0001) %MON dynstat_wvel_del2            =   1.7453346095665E-07
(PID.TID 0000.0001) %MON dynstat_theta_max            =   1.2000000000000E+00
(PID.TID 0000.0001) %MON dynstat_theta_min            =  -1.0000000000000E+00
(PID.TID 0000.0001) %MON dynstat_theta_mean           =   5.6462173236710E-01
(PID.TID 0000.0001) %MON dynstat_theta_sd             =   8.4871453076717E-01
(PID.TID 0000.0001) %MON dynstat_theta_del2           =   6.9841622261448E-06
(PID.TID 0000.0001) %MON dynstat_salt_max             =   3.4700000000000E+01
(PID.TID 0000.0001) %MON dynstat_salt_min             =   3.4000000000000E+01
(PID.TID 0000.0001) %MON dynstat_salt_mean            =   3.4497762809252E+01
(PID.TID 0000.0001) %MON dynstat_salt_sd              =   2.7002829145052E-01
(PID.TID 0000.0001) %MON dynstat_salt_del2            =   2.7699753833004E-06
(PID.TID 0000.0001) %MON advcfl_uvel_max              =   8.1130460850495E-03
(PID.TID 0000.0001) %MON advcfl_vvel_max              =   4.1367872780811E-03
(PID.TID 0000.0001) %MON advcfl_wvel_max              =   1.5901320662934E-02
(PID.TID 0000.0001) %MON advcfl_W_hf_max              =   1.5901320662934E-02
(PID.TID 0000.0001) %MON pe_b_mean                    =  -6.8066804584534E-01
(PID.TID 0000.0001) %MON ke_max                       =   3.1409467756596E-03
(PID.TID 0000.0001) %MON ke_mean                      =   3.3388523817421E-06
(PID.TID 0000.0001) %MON ke_vol                       =   4.6183325286374E+12
(PID.TID 0000.0001) // =======================================================
(PID.TID 0000.0001) // End MONITOR dynamic field statistics
(PID.TID 0000.0001) // =======================================================
(PID.TID 0000.0001) // =======================================================
(PID.TID 0000.0001) // Begin OBCS MONITOR field statistics
(PID.TID 0000.0001) // =======================================================
(PID.TID 0000.0001) %MON obc_N_vVel_max               =   1.1369089458020E-07
(PID.TID 0000.0001) %MON obc_N_vVel_min               =   1.1369089458019E-07
(PID.TID 0000.0001) %MON obc_N_vVel_mean              =   1.1369089458020E-07
(PID.TID 0000.0001) %MON obc_N_vVel_sd                =  -7.6835052168527E-28
(PID.TID 0000.0001) %MON obc_N_vVel_Int               =   7.5035990422930E+00
(PID.TID 0000.0001) // =======================================================
(PID.TID 0000.0001) // End OBCS MONITOR field statistics
(PID.TID 0000.0001) // =======================================================
 cg2d: Sum(rhs),rhsMax =   3.00344250523348E+00  4.53034863936271E+02
(PID.TID 0000.0001)      cg2d_init_res =   7.54006391542464E-06
(PID.TID 0000.0001)      cg2d_iters(min,last) =      -1      80
(PID.TID 0000.0001)      cg2d_last_res =   8.81396092610863E-12
(PID.TID 0000.0001) // =======================================================
(PID.TID 0000.0001) // Begin MONITOR dynamic field statistics
(PID.TID 0000.0001) // =======================================================
(PID.TID 0000.0001) %MON time_tsnumber                =                  1630
(PID.TID 0000.0001) %MON time_secondsf                =   1.6300000000000E+05
(PID.TID 0000.0001) %MON dynstat_eta_max              =   5.8001473681116E+00
(PID.TID 0000.0001) %MON dynstat_eta_min              =  -1.4163543710653E+01
(PID.TID 0000.0001) %MON dynstat_eta_mean             =  -2.5197484568497E+00
(PID.TID 0000.0001) %MON dynstat_eta_sd               =   4.9398320884680E+00
(PID.TID 0000.0001) %MON dynstat_eta_del2             =   1.9060070211167E-01
(PID.TID 0000.0001) %MON dynstat_uvel_max             =   1.8124135886446E-02
(PID.TID 0000.0001) %MON dynstat_uvel_min             =  -8.1271270559995E-02
(PID.TID 0000.0001) %MON dynstat_uvel_mean            =   8.6561381899931E-09
(PID.TID 0000.0001) %MON dynstat_uvel_sd              =   2.4051158837744E-03
(PID.TID 0000.0001) %MON dynstat_uvel_del2            =   3.8504310636668E-06
(PID.TID 0000.0001) %MON dynstat_vvel_max             =   4.1409936276064E-02
(PID.TID 0000.0001) %MON dynstat_vvel_min             =  -2.6161398418125E-02
(PID.TID 0000.0001) %MON dynstat_vvel_mean            =   1.8044816791554E-07
(PID.TID 0000.0001) %MON dynstat_vvel_sd              =   1.0136074394624E-03
(PID.TID 0000.0001) %MON dynstat_vvel_del2            =   2.5465195655129E-06
(PID.TID 0000.0001) %MON dynstat_wvel_max             =   2.8385951920365E-03
(PID.TID 0000.0001) %MON dynstat_wvel_min             =  -3.1800370703606E-03
(PID.TID 0000.0001) %MON dynstat_wvel_mean            =   6.1653853511437E-10
(PID.TID 0000.0001) %MON dynstat_wvel_sd              =   4.8575928574299E-05
(PID.TID 0000.0001) %MON dynstat_wvel_del2            =   1.7473371361297E-07
(PID.TID 0000.0001) %MON dynstat_theta_max            =   1.2000000000000E+00
(PID.TID 0000.0001) %MON dynstat_theta_min            =  -1.0000000000000E+00
(PID.TID 0000.0001) %MON dynstat_theta_mean           =   5.6462017339661E-01
(PID.TID 0000.0001) %MON dynstat_theta_sd             =   8.4871387300331E-01
(PID.TID 0000.0001) %MON dynstat_theta_del2           =   6.9947382301274E-06
(PID.TID 0000.0001) %MON dynstat_salt_max             =   3.4700000000000E+01
(PID.TID 0000.0001) %MON dynstat_salt_min             =   3.4000000000000E+01
(PID.TID 0000.0001) %MON dynstat_salt_mean            =   3.4497762185703E+01
(PID.TID 0000.0001) %MON dynstat_salt_sd              =   2.7002804842350E-01
(PID.TID 0000.0001) %MON dynstat_salt_del2            =   2.7741943828686E-06
(PID.TID 0000.0001) %MON advcfl_uvel_max              =   8.1271270559995E-03
(PID.TID 0000.0001) %MON advcfl_vvel_max              =   4.1409936276064E-03
(PID.TID 0000.0001) %MON advcfl_wvel_max              =   1.5900185351803E-02
(PID.TID 0000.0001) %MON advcfl_W_hf_max              =   1.5900185351803E-02
(PID.TID 0000.0001) %MON pe_b_mean                    =  -6.8066383661431E-01
(PID.TID 0000.0001) %MON ke_max                       =   3.1521364370983E-03
(PID.TID 0000.0001) %MON ke_mean                      =   3.3516061472405E-06
(PID.TID 0000.0001) %MON ke_vol                       =   4.6183326113364E+12
(PID.TID 0000.0001) // =======================================================
(PID.TID 0000.0001) // End MONITOR dynamic field statistics
(PID.TID 0000.0001) // =======================================================
(PID.TID 0000.0001) // =======================================================
(PID.TID 0000.0001) // Begin OBCS MONITOR field statistics
(PID.TID 0000.0001) // =======================================================
(PID.TID 0000.0001) %MON obc_N_vVel_max               =   1.1323343100230E-07
(PID.TID 0000.0001) %MON obc_N_vVel_min               =   1.1323343100230E-07
(PID.TID 0000.0001) %MON obc_N_vVel_mean              =   1.1323343100230E-07
(PID.TID 0000.0001) %MON obc_N_vVel_sd                =   1.5332336735014E-14
(PID.TID 0000.0001) %MON obc_N_vVel_Int               =   7.4734064461515E+00
(PID.TID 0000.0001) // =======================================================
(PID.TID 0000.0001) // End OBCS MONITOR field statistics
(PID.TID 0000.0001) // =======================================================
 cg2d: Sum(rhs),rhsMax =   3.00342602868324E+00  4.53034838199218E+02
(PID.TID 0000.0001)      cg2d_init_res =   7.55021692539667E-06
(PID.TID 0000.0001)      cg2d_iters(min,last) =      -1      80
(PID.TID 0000.0001)      cg2d_last_res =   8.82888400529727E-12
(PID.TID 0000.0001) // =======================================================
(PID.TID 0000.0001) // Begin MONITOR dynamic field statistics
(PID.TID 0000.0001) // =======================================================
(PID.TID 0000.0001) %MON time_tsnumber                =                  1631
(PID.TID 0000.0001) %MON time_secondsf                =   1.6310000000000E+05
(PID.TID 0000.0001) %MON dynstat_eta_max              =   5.8001513404884E+00
(PID.TID 0000.0001) %MON dynstat_eta_min              =  -1.4163540029854E+01
(PID.TID 0000.0001) %MON dynstat_eta_mean             =  -2.5197344906441E+00
(PID.TID 0000.0001) %MON dynstat_eta_sd               =   4.9398280375468E+00
(PID.TID 0000.0001) %MON dynstat_eta_del2             =   1.9060074312091E-01
(PID.TID 0000.0001) %MON dynstat_uvel_max             =   1.8156665680640E-02
(PID.TID 0000.0001) %MON dynstat_uvel_min             =  -8.1412161855891E-02
(PID.TID 0000.0001) %MON dynstat_uvel_mean            =   8.6628700203493E-09
(PID.TID 0000.0001) %MON dynstat_uvel_sd              =   2.4097595465270E-03
(PID.TID 0000.0001) %MON dynstat_uvel_del2            =   3.8586544297221E-06
(PID.TID 0000.0001) %MON dynstat_vvel_max             =   4.1451984789062E-02
(PID.TID 0000.0001) %MON dynstat_vvel_min             =  -2.6223658997125E-02
(PID.TID 0000.0001) %MON dynstat_vvel_mean            =   1.8047014808153E-07
(PID.TID 0000.0001) %MON dynstat_vvel_sd              =   1.0154053791871E-03
(PID.TID 0000.0001) %MON dynstat_vvel_del2            =   2.5504846113695E-06
(PID.TID 0000.0001) %MON dynstat_wvel_max             =   2.8420349266337E-03
(PID.TID 0000.0001) %MON dynstat_wvel_min             =  -3.1797838125958E-03
(PID.TID 0000.0001) %MON dynstat_wvel_mean            =   6.1927907596920E-10
(PID.TID 0000.0001) %MON dynstat_wvel_sd              =   4.8641982665035E-05
(PID.TID 0000.0001) %MON dynstat_wvel_del2            =   1.7493504282465E-07
(PID.TID 0000.0001) %MON dynstat_theta_max            =   1.2000000000000E+00
(PID.TID 0000.0001) %MON dynstat_theta_min            =  -1.0000000000000E+00
(PID.TID 0000.0001) %MON dynstat_theta_mean           =   5.6461861203977E-01
(PID.TID 0000.0001) %MON dynstat_theta_sd             =   8.4871321447654E-01
(PID.TID 0000.0001) %MON dynstat_theta_del2           =   7.0053222412427E-06
(PID.TID 0000.0001) %MON dynstat_salt_max             =   3.4700000000000E+01
(PID.TID 0000.0001) %MON dynstat_salt_min             =   3.4000000000000E+01
(PID.TID 0000.0001) %MON dynstat_salt_mean            =   3.4497761561198E+01
(PID.TID 0000.0001) %MON dynstat_salt_sd              =   2.7002780514507E-01
(PID.TID 0000.0001) %MON dynstat_salt_del2            =   2.7784168007576E-06
(PID.TID 0000.0001) %MON advcfl_uvel_max              =   8.1412161855891E-03
(PID.TID 0000.0001) %MON advcfl_vvel_max              =   4.1451984789062E-03
(PID.TID 0000.0001) %MON advcfl_wvel_max              =   1.5898919062979E-02
(PID.TID 0000.0001) %MON advcfl_W_hf_max              =   1.5898919062979E-02
(PID.TID 0000.0001) %MON pe_b_mean                    =  -6.8065962088903E-01
(PID.TID 0000.0001) %MON ke_max                       =   3.1633455561938E-03
(PID.TID 0000.0001) %MON ke_mean                      =   3.3643992937199E-06
(PID.TID 0000.0001) %MON ke_vol                       =   4.6183326941663E+12
(PID.TID 0000.0001) // =======================================================
(PID.TID 0000.0001) // End MONITOR dynamic field statistics
(PID.TID 0000.0001) // =======================================================
(PID.TID 0000.0001) // =======================================================
(PID.TID 0000.0001) // Begin OBCS MONITOR field statistics
(PID.TID 0000.0001) // =======================================================
(PID.TID 0000.0001) %MON obc_N_vVel_max               =   1.1300853668322E-07
(PID.TID 0000.0001) %MON obc_N_vVel_min               =   1.1300853668322E-07
(PID.TID 0000.0001) %MON obc_N_vVel_mean              =   1.1300853668322E-07
(PID.TID 0000.0001) %MON obc_N_vVel_sd                =   2.6467120807452E-14
(PID.TID 0000.0001) %MON obc_N_vVel_Int               =   7.4585634210924E+00
(PID.TID 0000.0001) // =======================================================
(PID.TID 0000.0001) // End OBCS MONITOR field statistics
(PID.TID 0000.0001) // =======================================================
 cg2d: Sum(rhs),rhsMax =   3.00340952652759E+00  4.53034812453304E+02
(PID.TID 0000.0001)      cg2d_init_res =   7.56036334596145E-06
(PID.TID 0000.0001)      cg2d_iters(min,last) =      -1      80
(PID.TID 0000.0001)      cg2d_last_res =   8.84382295269195E-12
(PID.TID 0000.0001) // =======================================================
(PID.TID 0000.0001) // Begin MONITOR dynamic field statistics
(PID.TID 0000.0001) // =======================================================
(PID.TID 0000.0001) %MON time_tsnumber                =                  1632
(PID.TID 0000.0001) %MON time_secondsf                =   1.6320000000000E+05
(PID.TID 0000.0001) %MON dynstat_eta_max              =   5.8001553121649E+00
(PID.TID 0000.0001) %MON dynstat_eta_min              =  -1.4163536347341E+01
(PID.TID 0000.0001) %MON dynstat_eta_mean             =  -2.5197205029091E+00
(PID.TID 0000.0001) %MON dynstat_eta_sd               =   4.9398239803073E+00
(PID.TID 0000.0001) %MON dynstat_eta_del2             =   1.9060078418034E-01
(PID.TID 0000.0001) %MON dynstat_uvel_max             =   1.8189208758784E-02
(PID.TID 0000.0001) %MON dynstat_uvel_min             =  -8.1553134382212E-02
(PID.TID 0000.0001) %MON dynstat_uvel_mean            =   8.6691744375336E-09
(PID.TID 0000.0001) %MON dynstat_uvel_sd              =   2.4144084760158E-03
(PID.TID 0000.0001) %MON dynstat_uvel_del2            =   3.8668911726755E-06
(PID.TID 0000.0001) %MON dynstat_vvel_max             =   4.1494018173765E-02
(PID.TID 0000.0001) %MON dynstat_vvel_min             =  -2.6285975443681E-02
(PID.TID 0000.0001) %MON dynstat_vvel_mean            =   1.8075196934984E-07
(PID.TID 0000.0001) %MON dynstat_vvel_sd              =   1.0172058419354E-03
(PID.TID 0000.0001) %MON dynstat_vvel_del2            =   2.5544539243561E-06
(PID.TID 0000.0001) %MON dynstat_wvel_max             =   2.8454718147286E-03
(PID.TID 0000.0001) %MON dynstat_wvel_min             =  -3.1795045066810E-03
(PID.TID 0000.0001) %MON dynstat_wvel_mean            =   6.2202864659463E-10
(PID.TID 0000.0001) %MON dynstat_wvel_sd              =   4.8708116861488E-05
(PID.TID 0000.0001) %MON dynstat_wvel_del2            =   1.7513729125357E-07
(PID.TID 0000.0001) %MON dynstat_theta_max            =   1.2000000000000E+00
(PID.TID 0000.0001) %MON dynstat_theta_min            =  -1.0000000000000E+00
(PID.TID 0000.0001) %MON dynstat_theta_mean           =   5.6461704829421E-01
(PID.TID 0000.0001) %MON dynstat_theta_sd             =   8.4871255518817E-01
(PID.TID 0000.0001) %MON dynstat_theta_del2           =   7.0159146932937E-06
(PID.TID 0000.0001) %MON dynstat_salt_max             =   3.4700000000000E+01
(PID.TID 0000.0001) %MON dynstat_salt_min             =   3.4000000000000E+01
(PID.TID 0000.0001) %MON dynstat_salt_mean            =   3.4497760935737E+01
(PID.TID 0000.0001) %MON dynstat_salt_sd              =   2.7002756161567E-01
(PID.TID 0000.0001) %MON dynstat_salt_del2            =   2.7826426980692E-06
(PID.TID 0000.0001) %MON advcfl_uvel_max              =   8.1553134382212E-03
(PID.TID 0000.0001) %MON advcfl_vvel_max              =   4.1494018173765E-03
(PID.TID 0000.0001) %MON advcfl_wvel_max              =   1.5897522533405E-02
(PID.TID 0000.0001) %MON advcfl_W_hf_max              =   1.5897522533405E-02
(PID.TID 0000.0001) %MON pe_b_mean                    =  -6.8065539872089E-01
(PID.TID 0000.0001) %MON ke_max                       =   3.1745740574847E-03
(PID.TID 0000.0001) %MON ke_mean                      =   3.3772318743501E-06
(PID.TID 0000.0001) %MON ke_vol                       =   4.6183327771256E+12
(PID.TID 0000.0001) // =======================================================
(PID.TID 0000.0001) // End MONITOR dynamic field statistics
(PID.TID 0000.0001) // =======================================================
(PID.TID 0000.0001) // =======================================================
(PID.TID 0000.0001) // Begin OBCS MONITOR field statistics
(PID.TID 0000.0001) // =======================================================
(PID.TID 0000.0001) %MON obc_N_vVel_max               =   1.1302536402106E-07
(PID.TID 0000.0001) %MON obc_N_vVel_min               =   1.1302536402106E-07
(PID.TID 0000.0001) %MON obc_N_vVel_mean              =   1.1302536402106E-07
(PID.TID 0000.0001) %MON obc_N_vVel_sd                =  -1.2195789594717E-27
(PID.TID 0000.0001) %MON obc_N_vVel_Int               =   7.4596740253902E+00
(PID.TID 0000.0001) // =======================================================
(PID.TID 0000.0001) // End OBCS MONITOR field statistics
(PID.TID 0000.0001) // =======================================================
 cg2d: Sum(rhs),rhsMax =   3.00339299904817E+00  4.53034786702522E+02
(PID.TID 0000.0001)      cg2d_init_res =   7.57051293871596E-06
(PID.TID 0000.0001)      cg2d_iters(min,last) =      -1      80
(PID.TID 0000.0001)      cg2d_last_res =   8.85868934083040E-12
(PID.TID 0000.0001) // =======================================================
(PID.TID 0000.0001) // Begin MONITOR dynamic field statistics
(PID.TID 0000.0001) // =======================================================
(PID.TID 0000.0001) %MON time_tsnumber                =                  1633
(PID.TID 0000.0001) %MON time_secondsf                =   1.6330000000000E+05
(PID.TID 0000.0001) %MON dynstat_eta_max              =   5.8001592824469E+00
(PID.TID 0000.0001) %MON dynstat_eta_min              =  -1.4163532663556E+01
(PID.TID 0000.0001) %MON dynstat_eta_mean             =  -2.5197064939030E+00
(PID.TID 0000.0001) %MON dynstat_eta_sd               =   4.9398199168335E+00
(PID.TID 0000.0001) %MON dynstat_eta_del2             =   1.9060082528991E-01
(PID.TID 0000.0001) %MON dynstat_uvel_max             =   1.8221764910938E-02
(PID.TID 0000.0001) %MON dynstat_uvel_min             =  -8.1694187610051E-02
(PID.TID 0000.0001) %MON dynstat_uvel_mean            =   8.6753187509624E-09
(PID.TID 0000.0001) %MON dynstat_uvel_sd              =   2.4190626663761E-03
(PID.TID 0000.0001) %MON dynstat_uvel_del2            =   3.8751412942246E-06
(PID.TID 0000.0001) %MON dynstat_vvel_max             =   4.1536036281899E-02
(PID.TID 0000.0001) %MON dynstat_vvel_min             =  -2.6348347304086E-02
(PID.TID 0000.0001) %MON dynstat_vvel_mean            =   1.8129320604355E-07
(PID.TID 0000.0001) %MON dynstat_vvel_sd              =   1.0190088086609E-03
(PID.TID 0000.0001) %MON dynstat_vvel_del2            =   2.5584274278641E-06
(PID.TID 0000.0001) %MON dynstat_wvel_max             =   2.8489058357920E-03
(PID.TID 0000.0001) %MON dynstat_wvel_min             =  -3.1791993021161E-03
(PID.TID 0000.0001) %MON dynstat_wvel_mean            =   6.2474393809698E-10
(PID.TID 0000.0001) %MON dynstat_wvel_sd              =   4.8774257079408E-05
(PID.TID 0000.0001) %MON dynstat_wvel_del2            =   1.7534026417353E-07
(PID.TID 0000.0001) %MON dynstat_theta_max            =   1.2000000000000E+00
(PID.TID 0000.0001) %MON dynstat_theta_min            =  -1.0000000000000E+00
(PID.TID 0000.0001) %MON dynstat_theta_mean           =   5.6461548215763E-01
(PID.TID 0000.0001) %MON dynstat_theta_sd             =   8.4871189513814E-01
(PID.TID 0000.0001) %MON dynstat_theta_del2           =   7.0265154624528E-06
(PID.TID 0000.0001) %MON dynstat_salt_max             =   3.4700000000000E+01
(PID.TID 0000.0001) %MON dynstat_salt_min             =   3.4000000000000E+01
(PID.TID 0000.0001) %MON dynstat_salt_mean            =   3.4497760309320E+01
(PID.TID 0000.0001) %MON dynstat_salt_sd              =   2.7002731783527E-01
(PID.TID 0000.0001) %MON dynstat_salt_del2            =   2.7868720629391E-06
(PID.TID 0000.0001) %MON advcfl_uvel_max              =   8.1694187610051E-03
(PID.TID 0000.0001) %MON advcfl_vvel_max              =   4.1536036281899E-03
(PID.TID 0000.0001) %MON advcfl_wvel_max              =   1.5895996510581E-02
(PID.TID 0000.0001) %MON advcfl_W_hf_max              =   1.5895996510581E-02
(PID.TID 0000.0001) %MON pe_b_mean                    =  -6.8065117016084E-01
(PID.TID 0000.0001) %MON ke_max                       =   3.1858218656817E-03
(PID.TID 0000.0001) %MON ke_mean                      =   3.3901039415034E-06
(PID.TID 0000.0001) %MON ke_vol                       =   4.6183328602127E+12
(PID.TID 0000.0001) // =======================================================
(PID.TID 0000.0001) // End MONITOR dynamic field statistics
(PID.TID 0000.0001) // =======================================================
(PID.TID 0000.0001) // =======================================================
(PID.TID 0000.0001) // Begin OBCS MONITOR field statistics
(PID.TID 0000.0001) // =======================================================
(PID.TID 0000.0001) %MON obc_N_vVel_max               =   1.1328738504791E-07
(PID.TID 0000.0001) %MON obc_N_vVel_min               =   1.1328738504791E-07
(PID.TID 0000.0001) %MON obc_N_vVel_mean              =   1.1328738504791E-07
(PID.TID 0000.0001) %MON obc_N_vVel_sd                =   3.6534266813965E-14
(PID.TID 0000.0001) %MON obc_N_vVel_Int               =   7.4769674131618E+00
(PID.TID 0000.0001) // =======================================================
(PID.TID 0000.0001) // End OBCS MONITOR field statistics
(PID.TID 0000.0001) // =======================================================
 cg2d: Sum(rhs),rhsMax =   3.00337644652841E+00  4.53034760950129E+02
(PID.TID 0000.0001)      cg2d_init_res =   7.58066042827437E-06
(PID.TID 0000.0001)      cg2d_iters(min,last) =      -1      80
(PID.TID 0000.0001)      cg2d_last_res =   8.87353948957181E-12
(PID.TID 0000.0001) // =======================================================
(PID.TID 0000.0001) // Begin MONITOR dynamic field statistics
(PID.TID 0000.0001) // =======================================================
(PID.TID 0000.0001) %MON time_tsnumber                =                  1634
(PID.TID 0000.0001) %MON time_secondsf                =   1.6340000000000E+05
(PID.TID 0000.0001) %MON dynstat_eta_max              =   5.8001632506787E+00
(PID.TID 0000.0001) %MON dynstat_eta_min              =  -1.4163528978913E+01
(PID.TID 0000.0001) %MON dynstat_eta_mean             =  -2.5196924638819E+00
(PID.TID 0000.0001) %MON dynstat_eta_sd               =   4.9398158472053E+00
(PID.TID 0000.0001) %MON dynstat_eta_del2             =   1.9060086644984E-01
(PID.TID 0000.0001) %MON dynstat_uvel_max             =   1.8254333926501E-02
(PID.TID 0000.0001) %MON dynstat_uvel_min             =  -8.1835320984148E-02
(PID.TID 0000.0001) %MON dynstat_uvel_mean            =   8.6815656259117E-09
(PID.TID 0000.0001) %MON dynstat_uvel_sd              =   2.4237221115918E-03
(PID.TID 0000.0001) %MON dynstat_uvel_del2            =   3.8834047929361E-06
(PID.TID 0000.0001) %MON dynstat_vvel_max             =   4.1578038963094E-02
(PID.TID 0000.0001) %MON dynstat_vvel_min             =  -2.6410774108136E-02
(PID.TID 0000.0001) %MON dynstat_vvel_mean            =   1.8208745210711E-07
(PID.TID 0000.0001) %MON dynstat_vvel_sd              =   1.0208142608950E-03
(PID.TID 0000.0001) %MON dynstat_vvel_del2            =   2.5624050430082E-06
(PID.TID 0000.0001) %MON dynstat_wvel_max             =   2.8523369694655E-03
(PID.TID 0000.0001) %MON dynstat_wvel_min             =  -3.1788683505952E-03
(PID.TID 0000.0001) %MON dynstat_wvel_mean            =   6.2738364274035E-10
(PID.TID 0000.0001) %MON dynstat_wvel_sd              =   4.8840328588809E-05
(PID.TID 0000.0001) %MON dynstat_wvel_del2            =   1.7554373815536E-07
(PID.TID 0000.0001) %MON dynstat_theta_max            =   1.2000000000000E+00
(PID.TID 0000.0001) %MON dynstat_theta_min            =  -1.0000000000000E+00
(PID.TID 0000.0001) %MON dynstat_theta_mean           =   5.6461391362773E-01
(PID.TID 0000.0001) %MON dynstat_theta_sd             =   8.4871123432778E-01
(PID.TID 0000.0001) %MON dynstat_theta_del2           =   7.0371243211712E-06
(PID.TID 0000.0001) %MON dynstat_salt_max             =   3.4700000000000E+01
(PID.TID 0000.0001) %MON dynstat_salt_min             =   3.4000000000000E+01
(PID.TID 0000.0001) %MON dynstat_salt_mean            =   3.4497759681944E+01
(PID.TID 0000.0001) %MON dynstat_salt_sd              =   2.7002707380454E-01
(PID.TID 0000.0001) %MON dynstat_salt_del2            =   2.7911048399641E-06
(PID.TID 0000.0001) %MON advcfl_uvel_max              =   8.1835320984148E-03
(PID.TID 0000.0001) %MON advcfl_vvel_max              =   4.1578038963094E-03
(PID.TID 0000.0001) %MON advcfl_wvel_max              =   1.5894341752976E-02
(PID.TID 0000.0001) %MON advcfl_W_hf_max              =   1.5894341752976E-02
(PID.TID 0000.0001) %MON pe_b_mean                    =  -6.8064693525812E-01
(PID.TID 0000.0001) %MON ke_max                       =   3.1970889061935E-03
(PID.TID 0000.0001) %MON ke_mean                      =   3.4030155476373E-06
(PID.TID 0000.0001) %MON ke_vol                       =   4.6183329434262E+12
(PID.TID 0000.0001) // =======================================================
(PID.TID 0000.0001) // End MONITOR dynamic field statistics
(PID.TID 0000.0001) // =======================================================
(PID.TID 0000.0001) // =======================================================
(PID.TID 0000.0001) // Begin OBCS MONITOR field statistics
(PID.TID 0000.0001) // =======================================================
(PID.TID 0000.0001) %MON obc_N_vVel_max               =   1.1379236049101E-07
(PID.TID 0000.0001) %MON obc_N_vVel_min               =   1.1379236049101E-07
(PID.TID 0000.0001) %MON obc_N_vVel_mean              =   1.1379236049101E-07
(PID.TID 0000.0001) %MON obc_N_vVel_sd                =   6.5267517864505E-15
(PID.TID 0000.0001) %MON obc_N_vVel_Int               =   7.5102957924063E+00
(PID.TID 0000.0001) // =======================================================
(PID.TID 0000.0001) // End OBCS MONITOR field statistics
(PID.TID 0000.0001) // =======================================================
 cg2d: Sum(rhs),rhsMax =   3.00335986924635E+00  4.53034735198620E+02
(PID.TID 0000.0001)      cg2d_init_res =   7.59080842423496E-06
(PID.TID 0000.0001)      cg2d_iters(min,last) =      -1      80
(PID.TID 0000.0001)      cg2d_last_res =   8.88836627187594E-12
(PID.TID 0000.0001) // =======================================================
(PID.TID 0000.0001) // Begin MONITOR dynamic field statistics
(PID.TID 0000.0001) // =======================================================
(PID.TID 0000.0001) %MON time_tsnumber                =                  1635
(PID.TID 0000.0001) %MON time_secondsf                =   1.6350000000000E+05
(PID.TID 0000.0001) %MON dynstat_eta_max              =   5.8001672162111E+00
(PID.TID 0000.0001) %MON dynstat_eta_min              =  -1.4163525293824E+01
(PID.TID 0000.0001) %MON dynstat_eta_mean             =  -2.5196784130929E+00
(PID.TID 0000.0001) %MON dynstat_eta_sd               =   4.9398117714886E+00
(PID.TID 0000.0001) %MON dynstat_eta_del2             =   1.9060090766000E-01
(PID.TID 0000.0001) %MON dynstat_uvel_max             =   1.8286915594083E-02
(PID.TID 0000.0001) %MON dynstat_uvel_min             =  -8.1976533940797E-02
(PID.TID 0000.0001) %MON dynstat_uvel_mean            =   8.6881755963934E-09
(PID.TID 0000.0001) %MON dynstat_uvel_sd              =   2.4283868056814E-03
(PID.TID 0000.0001) %MON dynstat_uvel_del2            =   3.8916816690058E-06
(PID.TID 0000.0001) %MON dynstat_vvel_max             =   4.1620026064980E-02
(PID.TID 0000.0001) %MON dynstat_vvel_min             =  -2.6473255386659E-02
(PID.TID 0000.0001) %MON dynstat_vvel_mean            =   1.8312248356285E-07
(PID.TID 0000.0001) %MON dynstat_vvel_sd              =   1.0226221816528E-03
(PID.TID 0000.0001) %MON dynstat_vvel_del2            =   2.5663866919514E-06
(PID.TID 0000.0001) %MON dynstat_wvel_max             =   2.8557651954649E-03
(PID.TID 0000.0001) %MON dynstat_wvel_min             =  -3.1785118058356E-03
(PID.TID 0000.0001) %MON dynstat_wvel_mean            =   6.2990827223537E-10
(PID.TID 0000.0001) %MON dynstat_wvel_sd              =   4.8906259741339E-05
(PID.TID 0000.0001) %MON dynstat_wvel_del2            =   1.7574747393077E-07
(PID.TID 0000.0001) %MON dynstat_theta_max            =   1.2000000000000E+00
(PID.TID 0000.0001) %MON dynstat_theta_min            =  -1.0000000000000E+00
(PID.TID 0000.0001) %MON dynstat_theta_mean           =   5.6461234270228E-01
(PID.TID 0000.0001) %MON dynstat_theta_sd             =   8.4871057275815E-01
(PID.TID 0000.0001) %MON dynstat_theta_del2           =   7.0477416253897E-06
(PID.TID 0000.0001) %MON dynstat_salt_max             =   3.4700000000000E+01
(PID.TID 0000.0001) %MON dynstat_salt_min             =   3.4000000000000E+01
(PID.TID 0000.0001) %MON dynstat_salt_mean            =   3.4497759053610E+01
(PID.TID 0000.0001) %MON dynstat_salt_sd              =   2.7002682952397E-01
(PID.TID 0000.0001) %MON dynstat_salt_del2            =   2.7953409711542E-06
(PID.TID 0000.0001) %MON advcfl_uvel_max              =   8.1976533940797E-03
(PID.TID 0000.0001) %MON advcfl_vvel_max              =   4.1620026064980E-03
(PID.TID 0000.0001) %MON advcfl_wvel_max              =   1.5892559029178E-02
(PID.TID 0000.0001) %MON advcfl_W_hf_max              =   1.5892559029178E-02
(PID.TID 0000.0001) %MON pe_b_mean                    =  -6.8064269405904E-01
(PID.TID 0000.0001) %MON ke_max                       =   3.2083751049183E-03
(PID.TID 0000.0001) %MON ke_mean                      =   3.4159667466644E-06
(PID.TID 0000.0001) %MON ke_vol                       =   4.6183330267645E+12
(PID.TID 0000.0001) // =======================================================
(PID.TID 0000.0001) // End MONITOR dynamic field statistics
(PID.TID 0000.0001) // =======================================================
(PID.TID 0000.0001) // =======================================================
(PID.TID 0000.0001) // Begin OBCS MONITOR field statistics
(PID.TID 0000.0001) // =======================================================
(PID.TID 0000.0001) %MON obc_N_vVel_max               =   1.1453244666590E-07
(PID.TID 0000.0001) %MON obc_N_vVel_min               =   1.1453244666590E-07
(PID.TID 0000.0001) %MON obc_N_vVel_mean              =   1.1453244666590E-07
(PID.TID 0000.0001) %MON obc_N_vVel_sd                =  -1.1233379290347E-27
(PID.TID 0000.0001) %MON obc_N_vVel_Int               =   7.5591414799496E+00
(PID.TID 0000.0001) // =======================================================
(PID.TID 0000.0001) // End OBCS MONITOR field statistics
(PID.TID 0000.0001) // =======================================================
 cg2d: Sum(rhs),rhsMax =   3.00334326746838E+00  4.53034709449652E+02
(PID.TID 0000.0001)      cg2d_init_res =   7.60094354888203E-06
(PID.TID 0000.0001)      cg2d_iters(min,last) =      -1      80
(PID.TID 0000.0001)      cg2d_last_res =   8.90321755040219E-12
(PID.TID 0000.0001) // =======================================================
(PID.TID 0000.0001) // Begin MONITOR dynamic field statistics
(PID.TID 0000.0001) // =======================================================
(PID.TID 0000.0001) %MON time_tsnumber                =                  1636
(PID.TID 0000.0001) %MON time_secondsf                =   1.6360000000000E+05
(PID.TID 0000.0001) %MON dynstat_eta_max              =   5.8001711784610E+00
(PID.TID 0000.0001) %MON dynstat_eta_min              =  -1.4163521608628E+01
(PID.TID 0000.0001) %MON dynstat_eta_mean             =  -2.5196643417687E+00
(PID.TID 0000.0001) %MON dynstat_eta_sd               =   4.9398076897406E+00
(PID.TID 0000.0001) %MON dynstat_eta_del2             =   1.9060094892032E-01
(PID.TID 0000.0001) %MON dynstat_uvel_max             =   1.8319509701694E-02
(PID.TID 0000.0001) %MON dynstat_uvel_min             =  -8.2117825905964E-02
(PID.TID 0000.0001) %MON dynstat_uvel_mean            =   8.6954006741508E-09
(PID.TID 0000.0001) %MON dynstat_uvel_sd              =   2.4330567426769E-03
(PID.TID 0000.0001) %MON dynstat_uvel_del2            =   3.8999719235211E-06
(PID.TID 0000.0001) %MON dynstat_vvel_max             =   4.1661997432945E-02
(PID.TID 0000.0001) %MON dynstat_vvel_min             =  -2.6535790670625E-02
(PID.TID 0000.0001) %MON dynstat_vvel_mean            =   1.8438060479828E-07
(PID.TID 0000.0001) %MON dynstat_vvel_sd              =   1.0244325563762E-03
(PID.TID 0000.0001) %MON dynstat_vvel_del2            =   2.5703723008540E-06
(PID.TID 0000.0001) %MON dynstat_wvel_max             =   2.8591904936553E-03
(PID.TID 0000.0001) %MON dynstat_wvel_min             =  -3.1781298236546E-03
(PID.TID 0000.0001) %MON dynstat_wvel_mean            =   6.3228073471034E-10
(PID.TID 0000.0001) %MON dynstat_wvel_sd              =   4.8971985380046E-05
(PID.TID 0000.0001) %MON dynstat_wvel_del2            =   1.7595122682410E-07
(PID.TID 0000.0001) %MON dynstat_theta_max            =   1.2000000000000E+00
(PID.TID 0000.0001) %MON dynstat_theta_min            =  -1.0000000000000E+00
(PID.TID 0000.0001) %MON dynstat_theta_mean           =   5.6461076937912E-01
(PID.TID 0000.0001) %MON dynstat_theta_sd             =   8.4870991043060E-01
(PID.TID 0000.0001) %MON dynstat_theta_del2           =   7.0583676366705E-06
(PID.TID 0000.0001) %MON dynstat_salt_max             =   3.4700000000000E+01
(PID.TID 0000.0001) %MON dynstat_salt_min             =   3.4000000000000E+01
(PID.TID 0000.0001) %MON dynstat_salt_mean            =   3.4497758424317E+01
(PID.TID 0000.0001) %MON dynstat_salt_sd              =   2.7002658499411E-01
(PID.TID 0000.0001) %MON dynstat_salt_del2            =   2.7995806315316E-06
(PID.TID 0000.0001) %MON advcfl_uvel_max              =   8.2117825905964E-03
(PID.TID 0000.0001) %MON advcfl_vvel_max              =   4.1661997432945E-03
(PID.TID 0000.0001) %MON advcfl_wvel_max              =   1.5890649118273E-02
(PID.TID 0000.0001) %MON advcfl_W_hf_max              =   1.5890649118273E-02
(PID.TID 0000.0001) %MON pe_b_mean                    =  -6.8063844660586E-01
(PID.TID 0000.0001) %MON ke_max                       =   3.2196803881870E-03
(PID.TID 0000.0001) %MON ke_mean                      =   3.4289575948819E-06
(PID.TID 0000.0001) %MON ke_vol                       =   4.6183331102262E+12
(PID.TID 0000.0001) // =======================================================
(PID.TID 0000.0001) // End MONITOR dynamic field statistics
(PID.TID 0000.0001) // =======================================================
(PID.TID 0000.0001) // =======================================================
(PID.TID 0000.0001) // Begin OBCS MONITOR field statistics
(PID.TID 0000.0001) // =======================================================
(PID.TID 0000.0001) %MON obc_N_vVel_max               =   1.1549441040010E-07
(PID.TID 0000.0001) %MON obc_N_vVel_min               =   1.1549441040010E-07
(PID.TID 0000.0001) %MON obc_N_vVel_mean              =   1.1549441040010E-07
(PID.TID 0000.0001) %MON obc_N_vVel_sd                =  -3.8180867812697E-28
(PID.TID 0000.0001) %MON obc_N_vVel_Int               =   7.6226310864068E+00
(PID.TID 0000.0001) // =======================================================
(PID.TID 0000.0001) // End OBCS MONITOR field statistics
(PID.TID 0000.0001) // =======================================================
 cg2d: Sum(rhs),rhsMax =   3.00332664144217E+00  4.53034683704065E+02
(PID.TID 0000.0001)      cg2d_init_res =   7.61109141447696E-06
(PID.TID 0000.0001)      cg2d_iters(min,last) =      -1      80
(PID.TID 0000.0001)      cg2d_last_res =   8.91800730909584E-12
(PID.TID 0000.0001) // =======================================================
(PID.TID 0000.0001) // Begin MONITOR dynamic field statistics
(PID.TID 0000.0001) // =======================================================
(PID.TID 0000.0001) %MON time_tsnumber                =                  1637
(PID.TID 0000.0001) %MON time_secondsf                =   1.6370000000000E+05
(PID.TID 0000.0001) %MON dynstat_eta_max              =   5.8001751368775E+00
(PID.TID 0000.0001) %MON dynstat_eta_min              =  -1.4163517923650E+01
(PID.TID 0000.0001) %MON dynstat_eta_mean             =  -2.5196502501218E+00
(PID.TID 0000.0001) %MON dynstat_eta_sd               =   4.9398036020111E+00
(PID.TID 0000.0001) %MON dynstat_eta_del2             =   1.9060099023067E-01
(PID.TID 0000.0001) %MON dynstat_uvel_max             =   1.8352116037229E-02
(PID.TID 0000.0001) %MON dynstat_uvel_min             =  -8.2259196294615E-02
(PID.TID 0000.0001) %MON dynstat_uvel_mean            =   8.7034745076497E-09
(PID.TID 0000.0001) %MON dynstat_uvel_sd              =   2.4377319165089E-03
(PID.TID 0000.0001) %MON dynstat_uvel_del2            =   3.9082755530529E-06
(PID.TID 0000.0001) %MON dynstat_vvel_max             =   4.1703952910527E-02
(PID.TID 0000.0001) %MON dynstat_vvel_min             =  -2.6598379490679E-02
(PID.TID 0000.0001) %MON dynstat_vvel_mean            =   1.8583911011662E-07
(PID.TID 0000.0001) %MON dynstat_vvel_sd              =   1.0262453736170E-03
(PID.TID 0000.0001) %MON dynstat_vvel_del2            =   2.5743618039554E-06
(PID.TID 0000.0001) %MON dynstat_wvel_max             =   2.8626128440303E-03
(PID.TID 0000.0001) %MON dynstat_wvel_min             =  -3.1777225657455E-03
(PID.TID 0000.0001) %MON dynstat_wvel_mean            =   6.3446753232197E-10
(PID.TID 0000.0001) %MON dynstat_wvel_sd              =   4.9037450158862E-05
(PID.TID 0000.0001) %MON dynstat_wvel_del2            =   1.7615476253095E-07
(PID.TID 0000.0001) %MON dynstat_theta_max            =   1.2000000000000E+00
(PID.TID 0000.0001) %MON dynstat_theta_min            =  -1.0000000000000E+00
(PID.TID 0000.0001) %MON dynstat_theta_mean           =   5.6460919365617E-01
(PID.TID 0000.0001) %MON dynstat_theta_sd             =   8.4870924734610E-01
(PID.TID 0000.0001) %MON dynstat_theta_del2           =   7.0690024942108E-06
(PID.TID 0000.0001) %MON dynstat_salt_max             =   3.4700000000000E+01
(PID.TID 0000.0001) %MON dynstat_salt_min             =   3.4000000000000E+01
(PID.TID 0000.0001) %MON dynstat_salt_mean            =   3.4497757794064E+01
(PID.TID 0000.0001) %MON dynstat_salt_sd              =   2.7002634021571E-01
(PID.TID 0000.0001) %MON dynstat_salt_del2            =   2.8038238599344E-06
(PID.TID 0000.0001) %MON advcfl_uvel_max              =   8.2259196294615E-03
(PID.TID 0000.0001) %MON advcfl_vvel_max              =   4.1703952910527E-03
(PID.TID 0000.0001) %MON advcfl_wvel_max              =   1.5888612828728E-02
(PID.TID 0000.0001) %MON advcfl_W_hf_max              =   1.5888612828728E-02
(PID.TID 0000.0001) %MON pe_b_mean                    =  -6.8063419293569E-01
(PID.TID 0000.0001) %MON ke_max                       =   3.2310046826100E-03
(PID.TID 0000.0001) %MON ke_mean                      =   3.4419881514197E-06
(PID.TID 0000.0001) %MON ke_vol                       =   4.6183331938099E+12
(PID.TID 0000.0001) // =======================================================
(PID.TID 0000.0001) // End MONITOR dynamic field statistics
(PID.TID 0000.0001) // =======================================================
(PID.TID 0000.0001) // =======================================================
(PID.TID 0000.0001) // Begin OBCS MONITOR field statistics
(PID.TID 0000.0001) // =======================================================
(PID.TID 0000.0001) %MON obc_N_vVel_max               =   1.1665998534430E-07
(PID.TID 0000.0001) %MON obc_N_vVel_min               =   1.1665998534430E-07
(PID.TID 0000.0001) %MON obc_N_vVel_mean              =   1.1665998534430E-07
(PID.TID 0000.0001) %MON obc_N_vVel_sd                =   3.1124286202440E-14
(PID.TID 0000.0001) %MON obc_N_vVel_Int               =   7.6995590327236E+00
(PID.TID 0000.0001) // =======================================================
(PID.TID 0000.0001) // End OBCS MONITOR field statistics
(PID.TID 0000.0001) // =======================================================
 cg2d: Sum(rhs),rhsMax =   3.00330999139043E+00  4.53034657961884E+02
(PID.TID 0000.0001)      cg2d_init_res =   7.62124146865169E-06
(PID.TID 0000.0001)      cg2d_iters(min,last) =      -1      80
(PID.TID 0000.0001)      cg2d_last_res =   8.93275330325605E-12
(PID.TID 0000.0001) // =======================================================
(PID.TID 0000.0001) // Begin MONITOR dynamic field statistics
(PID.TID 0000.0001) // =======================================================
(PID.TID 0000.0001) %MON time_tsnumber                =                  1638
(PID.TID 0000.0001) %MON time_secondsf                =   1.6380000000000E+05
(PID.TID 0000.0001) %MON dynstat_eta_max              =   5.8001790909893E+00
(PID.TID 0000.0001) %MON dynstat_eta_min              =  -1.4163514239139E+01
(PID.TID 0000.0001) %MON dynstat_eta_mean             =  -2.5196361383390E+00
(PID.TID 0000.0001) %MON dynstat_eta_sd               =   4.9397995083375E+00
(PID.TID 0000.0001) %MON dynstat_eta_del2             =   1.9060103159120E-01
(PID.TID 0000.0001) %MON dynstat_uvel_max             =   1.8384734387920E-02
(PID.TID 0000.0001) %MON dynstat_uvel_min             =  -8.2400644511821E-02
(PID.TID 0000.0001) %MON dynstat_uvel_mean            =   8.7125957117666E-09
(PID.TID 0000.0001) %MON dynstat_uvel_sd              =   2.4424123210334E-03
(PID.TID 0000.0001) %MON dynstat_uvel_del2            =   3.9165925569224E-06
(PID.TID 0000.0001) %MON dynstat_vvel_max             =   4.1745892339514E-02
(PID.TID 0000.0001) %MON dynstat_vvel_min             =  -2.6661021377688E-02
(PID.TID 0000.0001) %MON dynstat_vvel_mean            =   1.8747087515813E-07
(PID.TID 0000.0001) %MON dynstat_vvel_sd              =   1.0280606258989E-03
(PID.TID 0000.0001) %MON dynstat_vvel_del2            =   2.5783551478879E-06
(PID.TID 0000.0001) %MON dynstat_wvel_max             =   2.8660322266762E-03
(PID.TID 0000.0001) %MON dynstat_wvel_min             =  -3.1772901967448E-03
(PID.TID 0000.0001) %MON dynstat_wvel_mean            =   6.3644062361703E-10
(PID.TID 0000.0001) %MON dynstat_wvel_sd              =   4.9102611393840E-05
(PID.TID 0000.0001) %MON dynstat_wvel_del2            =   1.7635787057952E-07
(PID.TID 0000.0001) %MON dynstat_theta_max            =   1.2000000000000E+00
(PID.TID 0000.0001) %MON dynstat_theta_min            =  -1.0000000000000E+00
(PID.TID 0000.0001) %MON dynstat_theta_mean           =   5.6460761553143E-01
(PID.TID 0000.0001) %MON dynstat_theta_sd             =   8.4870858350641E-01
(PID.TID 0000.0001) %MON dynstat_theta_del2           =   7.0796463137555E-06
(PID.TID 0000.0001) %MON dynstat_salt_max             =   3.4700000000000E+01
(PID.TID 0000.0001) %MON dynstat_salt_min             =   3.4000000000000E+01
(PID.TID 0000.0001) %MON dynstat_salt_mean            =   3.4497757162849E+01
(PID.TID 0000.0001) %MON dynstat_salt_sd              =   2.7002609518916E-01
(PID.TID 0000.0001) %MON dynstat_salt_del2            =   2.8080706865388E-06
(PID.TID 0000.0001) %MON advcfl_uvel_max              =   8.2400644511822E-03
(PID.TID 0000.0001) %MON advcfl_vvel_max              =   4.1745892339514E-03
(PID.TID 0000.0001) %MON advcfl_wvel_max              =   1.5886450983724E-02
(PID.TID 0000.0001) %MON advcfl_W_hf_max              =   1.5886450983724E-02
(PID.TID 0000.0001) %MON pe_b_mean                    =  -6.8062993307960E-01
(PID.TID 0000.0001) %MON ke_max                       =   3.2423479154892E-03
(PID.TID 0000.0001) %MON ke_mean                      =   3.4550584792154E-06
(PID.TID 0000.0001) %MON ke_vol                       =   4.6183332775143E+12
(PID.TID 0000.0001) // =======================================================
(PID.TID 0000.0001) // End MONITOR dynamic field statistics
(PID.TID 0000.0001) // =======================================================
(PID.TID 0000.0001) // =======================================================
(PID.TID 0000.0001) // Begin OBCS MONITOR field statistics
(PID.TID 0000.0001) // =======================================================
(PID.TID 0000.0001) %MON obc_N_vVel_max               =   1.1800634539938E-07
(PID.TID 0000.0001) %MON obc_N_vVel_min               =   1.1800634539938E-07
(PID.TID 0000.0001) %MON obc_N_vVel_mean              =   1.1800634539938E-07
(PID.TID 0000.0001) %MON obc_N_vVel_sd                =  -1.4199496293978E-29
(PID.TID 0000.0001) %MON obc_N_vVel_Int               =   7.7884187963590E+00
(PID.TID 0000.0001) // =======================================================
(PID.TID 0000.0001) // End OBCS MONITOR field statistics
(PID.TID 0000.0001) // =======================================================
 cg2d: Sum(rhs),rhsMax =   3.00329331750593E+00  4.53034632222320E+02
(PID.TID 0000.0001)      cg2d_init_res =   7.63139161677221E-06
(PID.TID 0000.0001)      cg2d_iters(min,last) =      -1      80
(PID.TID 0000.0001)      cg2d_last_res =   8.94747849190701E-12
(PID.TID 0000.0001) // =======================================================
(PID.TID 0000.0001) // Begin MONITOR dynamic field statistics
(PID.TID 0000.0001) // =======================================================
(PID.TID 0000.0001) %MON time_tsnumber                =                  1639
(PID.TID 0000.0001) %MON time_secondsf                =   1.6390000000000E+05
(PID.TID 0000.0001) %MON dynstat_eta_max              =   5.8001830403546E+00
(PID.TID 0000.0001) %MON dynstat_eta_min              =  -1.4163510555300E+01
(PID.TID 0000.0001) %MON dynstat_eta_mean             =  -2.5196220065779E+00
(PID.TID 0000.0001) %MON dynstat_eta_sd               =   4.9397954087433E+00
(PID.TID 0000.0001) %MON dynstat_eta_del2             =   1.9060107300185E-01
(PID.TID 0000.0001) %MON dynstat_uvel_max             =   1.8417364539971E-02
(PID.TID 0000.0001) %MON dynstat_uvel_min             =  -8.2542169953943E-02
(PID.TID 0000.0001) %MON dynstat_uvel_mean            =   8.7229287036839E-09
(PID.TID 0000.0001) %MON dynstat_uvel_sd              =   2.4470979500613E-03
(PID.TID 0000.0001) %MON dynstat_uvel_del2            =   3.9249229340621E-06
(PID.TID 0000.0001) %MON dynstat_vvel_max             =   4.1787815559874E-02
(PID.TID 0000.0001) %MON dynstat_vvel_min             =  -2.6723715861845E-02
(PID.TID 0000.0001) %MON dynstat_vvel_mean            =   1.8924503919498E-07
(PID.TID 0000.0001) %MON dynstat_vvel_sd              =   1.0298783102476E-03
(PID.TID 0000.0001) %MON dynstat_vvel_del2            =   2.5823522943421E-06
(PID.TID 0000.0001) %MON dynstat_wvel_max             =   2.8694486217961E-03
(PID.TID 0000.0001) %MON dynstat_wvel_min             =  -3.1768328833049E-03
(PID.TID 0000.0001) %MON dynstat_wvel_mean            =   6.3817716843227E-10
(PID.TID 0000.0001) %MON dynstat_wvel_sd              =   4.9167441314565E-05
(PID.TID 0000.0001) %MON dynstat_wvel_del2            =   1.7656037710614E-07
(PID.TID 0000.0001) %MON dynstat_theta_max            =   1.2000000000000E+00
(PID.TID 0000.0001) %MON dynstat_theta_min            =  -1.0000000000000E+00
(PID.TID 0000.0001) %MON dynstat_theta_mean           =   5.6460603500297E-01
(PID.TID 0000.0001) %MON dynstat_theta_sd             =   8.4870791891290E-01
(PID.TID 0000.0001) %MON dynstat_theta_del2           =   7.0902992033595E-06
(PID.TID 0000.0001) %MON dynstat_salt_max             =   3.4700000000000E+01
(PID.TID 0000.0001) %MON dynstat_salt_min             =   3.4000000000000E+01
(PID.TID 0000.0001) %MON dynstat_salt_mean            =   3.4497756530673E+01
(PID.TID 0000.0001) %MON dynstat_salt_sd              =   2.7002584991547E-01
(PID.TID 0000.0001) %MON dynstat_salt_del2            =   2.8123211400673E-06
(PID.TID 0000.0001) %MON advcfl_uvel_max              =   8.2542169953943E-03
(PID.TID 0000.0001) %MON advcfl_vvel_max              =   4.1787815559874E-03
(PID.TID 0000.0001) %MON advcfl_wvel_max              =   1.5884164416524E-02
(PID.TID 0000.0001) %MON advcfl_W_hf_max              =   1.5884164416524E-02
(PID.TID 0000.0001) %MON pe_b_mean                    =  -6.8062566706188E-01
(PID.TID 0000.0001) %MON ke_max                       =   3.2537100148076E-03
(PID.TID 0000.0001) %MON ke_mean                      =   3.4681686456651E-06
(PID.TID 0000.0001) %MON ke_vol                       =   4.6183333613383E+12
(PID.TID 0000.0001) // =======================================================
(PID.TID 0000.0001) // End MONITOR dynamic field statistics
(PID.TID 0000.0001) // =======================================================
(PID.TID 0000.0001) // =======================================================
(PID.TID 0000.0001) // Begin OBCS MONITOR field statistics
(PID.TID 0000.0001) // =======================================================
(PID.TID 0000.0001) %MON obc_N_vVel_max               =   1.1950672753651E-07
(PID.TID 0000.0001) %MON obc_N_vVel_min               =   1.1950672753651E-07
(PID.TID 0000.0001) %MON obc_N_vVel_mean              =   1.1950672753651E-07
(PID.TID 0000.0001) %MON obc_N_vVel_sd                =  -2.7136815139603E-28
(PID.TID 0000.0001) %MON obc_N_vVel_Int               =   7.8874440174095E+00
(PID.TID 0000.0001) // =======================================================
(PID.TID 0000.0001) // End OBCS MONITOR field statistics
(PID.TID 0000.0001) // =======================================================
 cg2d: Sum(rhs),rhsMax =   3.00327661994671E+00  4.53034606483846E+02
(PID.TID 0000.0001)      cg2d_init_res =   7.64154243405083E-06
(PID.TID 0000.0001)      cg2d_iters(min,last) =      -1      80
(PID.TID 0000.0001)      cg2d_last_res =   8.96218270360351E-12
(PID.TID 0000.0001) // =======================================================
(PID.TID 0000.0001) // Begin MONITOR dynamic field statistics
(PID.TID 0000.0001) // =======================================================
(PID.TID 0000.0001) %MON time_tsnumber                =                  1640
(PID.TID 0000.0001) %MON time_secondsf                =   1.6400000000000E+05
(PID.TID 0000.0001) %MON dynstat_eta_max              =   5.8001869846239E+00
(PID.TID 0000.0001) %MON dynstat_eta_min              =  -1.4163506872258E+01
(PID.TID 0000.0001) %MON dynstat_eta_mean             =  -2.5196078549624E+00
(PID.TID 0000.0001) %MON dynstat_eta_sd               =   4.9397913032387E+00
(PID.TID 0000.0001) %MON dynstat_eta_del2             =   1.9060111446252E-01
(PID.TID 0000.0001) %MON dynstat_uvel_max             =   1.8450006278660E-02
(PID.TID 0000.0001) %MON dynstat_uvel_min             =  -8.2683772007748E-02
(PID.TID 0000.0001) %MON dynstat_uvel_mean            =   8.7346089495436E-09
(PID.TID 0000.0001) %MON dynstat_uvel_sd              =   2.4517887973638E-03
(PID.TID 0000.0001) %MON dynstat_uvel_del2            =   3.9332666830378E-06
(PID.TID 0000.0001) %MON dynstat_vvel_max             =   4.1829722409910E-02
(PID.TID 0000.0001) %MON dynstat_vvel_min             =  -2.6786462472121E-02
(PID.TID 0000.0001) %MON dynstat_vvel_mean            =   1.9112777085084E-07
(PID.TID 0000.0001) %MON dynstat_vvel_sd              =   1.0316984285192E-03
(PID.TID 0000.0001) %MON dynstat_vvel_del2            =   2.5863532220995E-06
(PID.TID 0000.0001) %MON dynstat_wvel_max             =   2.8728620097273E-03
(PID.TID 0000.0001) %MON dynstat_wvel_min             =  -3.1763507941159E-03
(PID.TID 0000.0001) %MON dynstat_wvel_mean            =   6.3966018225039E-10
(PID.TID 0000.0001) %MON dynstat_wvel_sd              =   4.9231928608089E-05
(PID.TID 0000.0001) %MON dynstat_wvel_del2            =   1.7676215598654E-07
(PID.TID 0000.0001) %MON dynstat_theta_max            =   1.2000000000000E+00
(PID.TID 0000.0001) %MON dynstat_theta_min            =  -1.0000000000000E+00
(PID.TID 0000.0001) %MON dynstat_theta_mean           =   5.6460445206897E-01
(PID.TID 0000.0001) %MON dynstat_theta_sd             =   8.4870725356770E-01
(PID.TID 0000.0001) %MON dynstat_theta_del2           =   7.1009612405928E-06
(PID.TID 0000.0001) %MON dynstat_salt_max             =   3.4700000000000E+01
(PID.TID 0000.0001) %MON dynstat_salt_min             =   3.4000000000000E+01
(PID.TID 0000.0001) %MON dynstat_salt_mean            =   3.4497755897535E+01
(PID.TID 0000.0001) %MON dynstat_salt_sd              =   2.7002560439503E-01
(PID.TID 0000.0001) %MON dynstat_salt_del2            =   2.8165752433110E-06
(PID.TID 0000.0001) %MON advcfl_uvel_max              =   8.2683772007748E-03
(PID.TID 0000.0001) %MON advcfl_vvel_max              =   4.1829722409910E-03
(PID.TID 0000.0001) %MON advcfl_wvel_max              =   1.5881753970580E-02
(PID.TID 0000.0001) %MON advcfl_W_hf_max              =   1.5881753970580E-02
(PID.TID 0000.0001) %MON pe_b_mean                    =  -6.8062139489951E-01
(PID.TID 0000.0001) %MON ke_max                       =   3.2650909090851E-03
(PID.TID 0000.0001) %MON ke_mean                      =   3.4813187230150E-06
(PID.TID 0000.0001) %MON ke_vol                       =   4.6183334452809E+12
(PID.TID 0000.0001) // =======================================================
(PID.TID 0000.0001) // End MONITOR dynamic field statistics
(PID.TID 0000.0001) // =======================================================
(PID.TID 0000.0001) // =======================================================
(PID.TID 0000.0001) // Begin OBCS MONITOR field statistics
(PID.TID 0000.0001) // =======================================================
(PID.TID 0000.0001) %MON obc_N_vVel_max               =   1.2113107726845E-07
(PID.TID 0000.0001) %MON obc_N_vVel_min               =   1.2113107726845E-07
(PID.TID 0000.0001) %MON obc_N_vVel_mean              =   1.2113107726845E-07
(PID.TID 0000.0001) %MON obc_N_vVel_sd                =  -5.2064819744587E-28
(PID.TID 0000.0001) %MON obc_N_vVel_Int               =   7.9946510997180E+00
(PID.TID 0000.0001) // =======================================================
(PID.TID 0000.0001) // End OBCS MONITOR field statistics
(PID.TID 0000.0001) // =======================================================
 cg2d: Sum(rhs),rhsMax =   3.00325989883220E+00  4.53034580744224E+02
(PID.TID 0000.0001)      cg2d_init_res =   7.65169465990765E-06
(PID.TID 0000.0001)      cg2d_iters(min,last) =      -1      80
(PID.TID 0000.0001)      cg2d_last_res =   8.97686936190234E-12
(PID.TID 0000.0001) // =======================================================
(PID.TID 0000.0001) // Begin MONITOR dynamic field statistics
(PID.TID 0000.0001) // =======================================================
(PID.TID 0000.0001) %MON time_tsnumber                =                  1641
(PID.TID 0000.0001) %MON time_secondsf                =   1.6410000000000E+05
(PID.TID 0000.0001) %MON dynstat_eta_max              =   5.8001909235099E+00
(PID.TID 0000.0001) %MON dynstat_eta_min              =  -1.4163503190094E+01
(PID.TID 0000.0001) %MON dynstat_eta_mean             =  -2.5195936835803E+00
(PID.TID 0000.0001) %MON dynstat_eta_sd               =   4.9397871918205E+00
(PID.TID 0000.0001) %MON dynstat_eta_del2             =   1.9060115597312E-01
(PID.TID 0000.0001) %MON dynstat_uvel_max             =   1.8482659388704E-02
(PID.TID 0000.0001) %MON dynstat_uvel_min             =  -8.2825450049995E-02
(PID.TID 0000.0001) %MON dynstat_uvel_mean            =   8.7477384785026E-09
(PID.TID 0000.0001) %MON dynstat_uvel_sd              =   2.4564848566705E-03
(PID.TID 0000.0001) %MON dynstat_uvel_del2            =   3.9416238021435E-06
(PID.TID 0000.0001) %MON dynstat_vvel_max             =   4.1871612726133E-02
(PID.TID 0000.0001) %MON dynstat_vvel_min             =  -2.6849260736046E-02
(PID.TID 0000.0001) %MON dynstat_vvel_mean            =   1.9308309864711E-07
(PID.TID 0000.0001) %MON dynstat_vvel_sd              =   1.0335209875160E-03
(PID.TID 0000.0001) %MON dynstat_vvel_del2            =   2.5903579287478E-06
(PID.TID 0000.0001) %MON dynstat_wvel_max             =   2.8762723709221E-03
(PID.TID 0000.0001) %MON dynstat_wvel_min             =  -3.1758441042000E-03
(PID.TID 0000.0001) %MON dynstat_wvel_mean            =   6.4087844875789E-10
(PID.TID 0000.0001) %MON dynstat_wvel_sd              =   4.9296079156302E-05
(PID.TID 0000.0001) %MON dynstat_wvel_del2            =   1.7696313783577E-07
(PID.TID 0000.0001) %MON dynstat_theta_max            =   1.2000000000000E+00
(PID.TID 0000.0001) %MON dynstat_theta_min            =  -1.0000000000000E+00
(PID.TID 0000.0001) %MON dynstat_theta_mean           =   5.6460286672770E-01
(PID.TID 0000.0001) %MON dynstat_theta_sd             =   8.4870658747184E-01
(PID.TID 0000.0001) %MON dynstat_theta_del2           =   7.1116320731261E-06
(PID.TID 0000.0001) %MON dynstat_salt_max             =   3.4700000000000E+01
(PID.TID 0000.0001) %MON dynstat_salt_min             =   3.4000000000000E+01
(PID.TID 0000.0001) %MON dynstat_salt_mean            =   3.4497755263434E+01
(PID.TID 0000.0001) %MON dynstat_salt_sd              =   2.7002535862879E-01
(PID.TID 0000.0001) %MON dynstat_salt_del2            =   2.8208329622128E-06
(PID.TID 0000.0001) %MON advcfl_uvel_max              =   8.2825450049995E-03
(PID.TID 0000.0001) %MON advcfl_vvel_max              =   4.1871612726133E-03
(PID.TID 0000.0001) %MON advcfl_wvel_max              =   1.5879220521000E-02
(PID.TID 0000.0001) %MON advcfl_W_hf_max              =   1.5879220521000E-02
(PID.TID 0000.0001) %MON pe_b_mean                    =  -6.8061711660167E-01
(PID.TID 0000.0001) %MON ke_max                       =   3.2764905274000E-03
(PID.TID 0000.0001) %MON ke_mean                      =   3.4945087885192E-06
(PID.TID 0000.0001) %MON ke_vol                       =   4.6183335293415E+12
(PID.TID 0000.0001) // =======================================================
(PID.TID 0000.0001) // End MONITOR dynamic field statistics
(PID.TID 0000.0001) // =======================================================
(PID.TID 0000.0001) // =======================================================
(PID.TID 0000.0001) // Begin OBCS MONITOR field statistics
(PID.TID 0000.0001) // =======================================================
(PID.TID 0000.0001) %MON obc_N_vVel_max               =   1.2284682795011E-07
(PID.TID 0000.0001) %MON obc_N_vVel_min               =   1.2284682795011E-07
(PID.TID 0000.0001) %MON obc_N_vVel_mean              =   1.2284682795011E-07
(PID.TID 0000.0001) %MON obc_N_vVel_sd                =  -5.8375706986355E-28
(PID.TID 0000.0001) %MON obc_N_vVel_Int               =   8.1078906447075E+00
(PID.TID 0000.0001) // =======================================================
(PID.TID 0000.0001) // End OBCS MONITOR field statistics
(PID.TID 0000.0001) // =======================================================
 cg2d: Sum(rhs),rhsMax =   3.00324315424052E+00  4.53034555000617E+02
(PID.TID 0000.0001)      cg2d_init_res =   7.66185005180258E-06
(PID.TID 0000.0001)      cg2d_iters(min,last) =      -1      80
(PID.TID 0000.0001)      cg2d_last_res =   8.99154234528782E-12
(PID.TID 0000.0001) // =======================================================
(PID.TID 0000.0001) // Begin MONITOR dynamic field statistics
(PID.TID 0000.0001) // =======================================================
(PID.TID 0000.0001) %MON time_tsnumber                =                  1642
(PID.TID 0000.0001) %MON time_secondsf                =   1.6420000000000E+05
(PID.TID 0000.0001) %MON dynstat_eta_max              =   5.8001948568135E+00
(PID.TID 0000.0001) %MON dynstat_eta_min              =  -1.4163499508784E+01
(PID.TID 0000.0001) %MON dynstat_eta_mean             =  -2.5195794924815E+00
(PID.TID 0000.0001) %MON dynstat_eta_sd               =   4.9397830744725E+00
(PID.TID 0000.0001) %MON dynstat_eta_del2             =   1.9060119753356E-01
(PID.TID 0000.0001) %MON dynstat_uvel_max             =   1.8515323654301E-02
(PID.TID 0000.0001) %MON dynstat_uvel_min             =  -8.2967203447875E-02
(PID.TID 0000.0001) %MON dynstat_uvel_mean            =   8.7623849542527E-09
(PID.TID 0000.0001) %MON dynstat_uvel_sd              =   2.4611861216725E-03
(PID.TID 0000.0001) %MON dynstat_uvel_del2            =   3.9499942894691E-06
(PID.TID 0000.0001) %MON dynstat_vvel_max             =   4.1913486508986E-02
(PID.TID 0000.0001) %MON dynstat_vvel_min             =  -2.6912110179499E-02
(PID.TID 0000.0001) %MON dynstat_vvel_mean            =   1.9507377575028E-07
(PID.TID 0000.0001) %MON dynstat_vvel_sd              =   1.0353459988465E-03
(PID.TID 0000.0001) %MON dynstat_vvel_del2            =   2.5943664309121E-06
(PID.TID 0000.0001) %MON dynstat_wvel_max             =   2.8796796881417E-03
(PID.TID 0000.0001) %MON dynstat_wvel_min             =  -3.1753129952353E-03
(PID.TID 0000.0001) %MON dynstat_wvel_mean            =   6.4182703240870E-10
(PID.TID 0000.0001) %MON dynstat_wvel_sd              =   4.9359915908982E-05
(PID.TID 0000.0001) %MON dynstat_wvel_del2            =   1.7716331573266E-07
(PID.TID 0000.0001) %MON dynstat_theta_max            =   1.2000000000000E+00
(PID.TID 0000.0001) %MON dynstat_theta_min            =  -1.0000000000000E+00
(PID.TID 0000.0001) %MON dynstat_theta_mean           =   5.6460127897754E-01
(PID.TID 0000.0001) %MON dynstat_theta_sd             =   8.4870592062363E-01
(PID.TID 0000.0001) %MON dynstat_theta_del2           =   7.1223121434780E-06
(PID.TID 0000.0001) %MON dynstat_salt_max             =   3.4700000000000E+01
(PID.TID 0000.0001) %MON dynstat_salt_min             =   3.4000000000000E+01
(PID.TID 0000.0001) %MON dynstat_salt_mean            =   3.4497754628369E+01
(PID.TID 0000.0001) %MON dynstat_salt_sd              =   2.7002511261685E-01
(PID.TID 0000.0001) %MON dynstat_salt_del2            =   2.8250943015478E-06
(PID.TID 0000.0001) %MON advcfl_uvel_max              =   8.2967203447875E-03
(PID.TID 0000.0001) %MON advcfl_vvel_max              =   4.1913486508986E-03
(PID.TID 0000.0001) %MON advcfl_wvel_max              =   1.5876564976176E-02
(PID.TID 0000.0001) %MON advcfl_W_hf_max              =   1.5876564976176E-02
(PID.TID 0000.0001) %MON pe_b_mean                    =  -6.8061283216957E-01
(PID.TID 0000.0001) %MON ke_max                       =   3.2879087994490E-03
(PID.TID 0000.0001) %MON ke_mean                      =   3.5077389243456E-06
(PID.TID 0000.0001) %MON ke_vol                       =   4.6183336135195E+12
(PID.TID 0000.0001) // =======================================================
(PID.TID 0000.0001) // End MONITOR dynamic field statistics
(PID.TID 0000.0001) // =======================================================
(PID.TID 0000.0001) // =======================================================
(PID.TID 0000.0001) // Begin OBCS MONITOR field statistics
(PID.TID 0000.0001) // =======================================================
(PID.TID 0000.0001) %MON obc_N_vVel_max               =   1.2461965849834E-07
(PID.TID 0000.0001) %MON obc_N_vVel_min               =   1.2461965849834E-07
(PID.TID 0000.0001) %MON obc_N_vVel_mean              =   1.2461965849834E-07
(PID.TID 0000.0001) %MON obc_N_vVel_sd                =  -6.5002138590211E-28
(PID.TID 0000.0001) %MON obc_N_vVel_Int               =   8.2248974608907E+00
(PID.TID 0000.0001) // =======================================================
(PID.TID 0000.0001) // End OBCS MONITOR field statistics
(PID.TID 0000.0001) // =======================================================
 cg2d: Sum(rhs),rhsMax =   3.00322638620680E+00  4.53034529249657E+02
(PID.TID 0000.0001)      cg2d_init_res =   7.67199290540353E-06
(PID.TID 0000.0001)      cg2d_iters(min,last) =      -1      80
(PID.TID 0000.0001)      cg2d_last_res =   9.00618035233860E-12
(PID.TID 0000.0001) // =======================================================
(PID.TID 0000.0001) // Begin MONITOR dynamic field statistics
(PID.TID 0000.0001) // =======================================================
(PID.TID 0000.0001) %MON time_tsnumber                =                  1643
(PID.TID 0000.0001) %MON time_secondsf                =   1.6430000000000E+05
(PID.TID 0000.0001) %MON dynstat_eta_max              =   5.8001987843982E+00
(PID.TID 0000.0001) %MON dynstat_eta_min              =  -1.4163495828263E+01
(PID.TID 0000.0001) %MON dynstat_eta_mean             =  -2.5195652816766E+00
(PID.TID 0000.0001) %MON dynstat_eta_sd               =   4.9397789511615E+00
(PID.TID 0000.0001) %MON dynstat_eta_del2             =   1.9060123914349E-01
(PID.TID 0000.0001) %MON dynstat_uvel_max             =   1.8547998859322E-02
(PID.TID 0000.0001) %MON dynstat_uvel_min             =  -8.3109031559303E-02
(PID.TID 0000.0001) %MON dynstat_uvel_mean            =   8.7785650725155E-09
(PID.TID 0000.0001) %MON dynstat_uvel_sd              =   2.4658925861278E-03
(PID.TID 0000.0001) %MON dynstat_uvel_del2            =   3.9583781425157E-06
(PID.TID 0000.0001) %MON dynstat_vvel_max             =   4.1955343783450E-02
(PID.TID 0000.0001) %MON dynstat_vvel_min             =  -2.6975010326634E-02
(PID.TID 0000.0001) %MON dynstat_vvel_mean            =   1.9706217824602E-07
(PID.TID 0000.0001) %MON dynstat_vvel_sd              =   1.0371734787616E-03
(PID.TID 0000.0001) %MON dynstat_vvel_del2            =   2.5983787631323E-06
(PID.TID 0000.0001) %MON dynstat_wvel_max             =   2.8830839445732E-03
(PID.TID 0000.0001) %MON dynstat_wvel_min             =  -3.1747576647598E-03
(PID.TID 0000.0001) %MON dynstat_wvel_mean            =   6.4250757936659E-10
(PID.TID 0000.0001) %MON dynstat_wvel_sd              =   4.9423477915017E-05
(PID.TID 0000.0001) %MON dynstat_wvel_del2            =   1.7736274781693E-07
(PID.TID 0000.0001) %MON dynstat_theta_max            =   1.2000000000000E+00
(PID.TID 0000.0001) %MON dynstat_theta_min            =  -1.0000000000000E+00
(PID.TID 0000.0001) %MON dynstat_theta_mean           =   5.6459968881696E-01
(PID.TID 0000.0001) %MON dynstat_theta_sd             =   8.4870525301858E-01
(PID.TID 0000.0001) %MON dynstat_theta_del2           =   7.1329956156625E-06
(PID.TID 0000.0001) %MON dynstat_salt_max             =   3.4700000000000E+01
(PID.TID 0000.0001) %MON dynstat_salt_min             =   3.4000000000000E+01
(PID.TID 0000.0001) %MON dynstat_salt_mean            =   3.4497753992340E+01
(PID.TID 0000.0001) %MON dynstat_salt_sd              =   2.7002486635570E-01
(PID.TID 0000.0001) %MON dynstat_salt_del2            =   2.8293569621803E-06
(PID.TID 0000.0001) %MON advcfl_uvel_max              =   8.3109031559303E-03
(PID.TID 0000.0001) %MON advcfl_vvel_max              =   4.1955343783450E-03
(PID.TID 0000.0001) %MON advcfl_wvel_max              =   1.5873788323799E-02
(PID.TID 0000.0001) %MON advcfl_W_hf_max              =   1.5873788323799E-02
(PID.TID 0000.0001) %MON pe_b_mean                    =  -6.8060854159641E-01
(PID.TID 0000.0001) %MON ke_max                       =   3.2993456556219E-03
(PID.TID 0000.0001) %MON ke_mean                      =   3.5210092177050E-06
(PID.TID 0000.0001) %MON ke_vol                       =   4.6183336978147E+12
(PID.TID 0000.0001) // =======================================================
(PID.TID 0000.0001) // End MONITOR dynamic field statistics
(PID.TID 0000.0001) // =======================================================
(PID.TID 0000.0001) // =======================================================
(PID.TID 0000.0001) // Begin OBCS MONITOR field statistics
(PID.TID 0000.0001) // =======================================================
(PID.TID 0000.0001) %MON obc_N_vVel_max               =   1.2641432853117E-07
(PID.TID 0000.0001) %MON obc_N_vVel_min               =   1.2641432853116E-07
(PID.TID 0000.0001) %MON obc_N_vVel_mean              =   1.2641432853116E-07
(PID.TID 0000.0001) %MON obc_N_vVel_sd                =   3.6878126316301E-14
(PID.TID 0000.0001) %MON obc_N_vVel_Int               =   8.3433456830566E+00
(PID.TID 0000.0001) // =======================================================
(PID.TID 0000.0001) // End OBCS MONITOR field statistics
(PID.TID 0000.0001) // =======================================================
 cg2d: Sum(rhs),rhsMax =   3.00320959472224E+00  4.53034503487517E+02
(PID.TID 0000.0001)      cg2d_init_res =   7.68145247390642E-06
(PID.TID 0000.0001)      cg2d_iters(min,last) =      -1      80
(PID.TID 0000.0001)      cg2d_last_res =   9.01987395877655E-12
(PID.TID 0000.0001) // =======================================================
(PID.TID 0000.0001) // Begin MONITOR dynamic field statistics
(PID.TID 0000.0001) // =======================================================
(PID.TID 0000.0001) %MON time_tsnumber                =                  1644
(PID.TID 0000.0001) %MON time_secondsf                =   1.6440000000000E+05
(PID.TID 0000.0001) %MON dynstat_eta_max              =   5.8002027062246E+00
(PID.TID 0000.0001) %MON dynstat_eta_min              =  -1.4163492148379E+01
(PID.TID 0000.0001) %MON dynstat_eta_mean             =  -2.5195510511369E+00
(PID.TID 0000.0001) %MON dynstat_eta_sd               =   4.9397748217168E+00
(PID.TID 0000.0001) %MON dynstat_eta_del2             =   1.9060128079488E-01
(PID.TID 0000.0001) %MON dynstat_uvel_max             =   1.8580684786670E-02
(PID.TID 0000.0001) %MON dynstat_uvel_min             =  -8.3250933733062E-02
(PID.TID 0000.0001) %MON dynstat_uvel_mean            =   8.7960295842939E-09
(PID.TID 0000.0001) %MON dynstat_uvel_sd              =   2.4706042468165E-03
(PID.TID 0000.0001) %MON dynstat_uvel_del2            =   3.9667753446992E-06
(PID.TID 0000.0001) %MON dynstat_vvel_max             =   4.1997184575380E-02
(PID.TID 0000.0001) %MON dynstat_vvel_min             =  -2.7037960699797E-02
(PID.TID 0000.0001) %MON dynstat_vvel_mean            =   1.9901140563970E-07
(PID.TID 0000.0001) %MON dynstat_vvel_sd              =   1.0390034561478E-03
(PID.TID 0000.0001) %MON dynstat_vvel_del2            =   2.6023949598343E-06
(PID.TID 0000.0001) %MON dynstat_wvel_max             =   2.8864851236269E-03
(PID.TID 0000.0001) %MON dynstat_wvel_min             =  -3.1741783113219E-03
(PID.TID 0000.0001) %MON dynstat_wvel_mean            =   6.4293982304512E-10
(PID.TID 0000.0001) %MON dynstat_wvel_sd              =   4.9486819040698E-05
(PID.TID 0000.0001) %MON dynstat_wvel_del2            =   1.7756156889247E-07
(PID.TID 0000.0001) %MON dynstat_theta_max            =   1.2000000000000E+00
(PID.TID 0000.0001) %MON dynstat_theta_min            =  -1.0000000000000E+00
(PID.TID 0000.0001) %MON dynstat_theta_mean           =   5.6459809624456E-01
(PID.TID 0000.0001) %MON dynstat_theta_sd             =   8.4870458466760E-01
(PID.TID 0000.0001) %MON dynstat_theta_del2           =   7.1436884610064E-06
(PID.TID 0000.0001) %MON dynstat_salt_max             =   3.4700000000000E+01
(PID.TID 0000.0001) %MON dynstat_salt_min             =   3.4000000000000E+01
(PID.TID 0000.0001) %MON dynstat_salt_mean            =   3.4497753355345E+01
(PID.TID 0000.0001) %MON dynstat_salt_sd              =   2.7002461985050E-01
(PID.TID 0000.0001) %MON dynstat_salt_del2            =   2.8336233318084E-06
(PID.TID 0000.0001) %MON advcfl_uvel_max              =   8.3250933733062E-03
(PID.TID 0000.0001) %MON advcfl_vvel_max              =   4.1997184575380E-03
(PID.TID 0000.0001) %MON advcfl_wvel_max              =   1.5870891556609E-02
(PID.TID 0000.0001) %MON advcfl_W_hf_max              =   1.5870891556609E-02
(PID.TID 0000.0001) %MON pe_b_mean                    =  -6.8060424486768E-01
(PID.TID 0000.0001) %MON ke_max                       =   3.3108010268597E-03
(PID.TID 0000.0001) %MON ke_mean                      =   3.5343197763634E-06
(PID.TID 0000.0001) %MON ke_vol                       =   4.6183337822268E+12
(PID.TID 0000.0001) // =======================================================
(PID.TID 0000.0001) // End MONITOR dynamic field statistics
(PID.TID 0000.0001) // =======================================================
(PID.TID 0000.0001) // =======================================================
(PID.TID 0000.0001) // Begin OBCS MONITOR field statistics
(PID.TID 0000.0001) // =======================================================
(PID.TID 0000.0001) %MON obc_N_vVel_max               =   1.2819550997880E-07
(PID.TID 0000.0001) %MON obc_N_vVel_min               =   1.2819550997880E-07
(PID.TID 0000.0001) %MON obc_N_vVel_mean              =   1.2819550997880E-07
(PID.TID 0000.0001) %MON obc_N_vVel_sd                =  -4.9856009209968E-28
(PID.TID 0000.0001) %MON obc_N_vVel_Int               =   8.4609036586008E+00
(PID.TID 0000.0001) // =======================================================
(PID.TID 0000.0001) // End OBCS MONITOR field statistics
(PID.TID 0000.0001) // =======================================================
 cg2d: Sum(rhs),rhsMax =   3.00319277973430E+00  4.53034477710078E+02
(PID.TID 0000.0001)      cg2d_init_res =   7.69165317382653E-06
(PID.TID 0000.0001)      cg2d_iters(min,last) =      -1      80
(PID.TID 0000.0001)      cg2d_last_res =   9.03455825754085E-12
(PID.TID 0000.0001) // =======================================================
(PID.TID 0000.0001) // Begin MONITOR dynamic field statistics
(PID.TID 0000.0001) // =======================================================
(PID.TID 0000.0001) %MON time_tsnumber                =                  1645
(PID.TID 0000.0001) %MON time_secondsf                =   1.6450000000000E+05
(PID.TID 0000.0001) %MON dynstat_eta_max              =   5.8002066223043E+00
(PID.TID 0000.0001) %MON dynstat_eta_min              =  -1.4163488468911E+01
(PID.TID 0000.0001) %MON dynstat_eta_mean             =  -2.5195368007956E+00
(PID.TID 0000.0001) %MON dynstat_eta_sd               =   4.9397706862226E+00
(PID.TID 0000.0001) %MON dynstat_eta_del2             =   1.9060132249596E-01
(PID.TID 0000.0001) %MON dynstat_uvel_max             =   1.8613381218153E-02
(PID.TID 0000.0001) %MON dynstat_uvel_min             =  -8.3392909310945E-02
(PID.TID 0000.0001) %MON dynstat_uvel_mean            =   8.8147295333173E-09
(PID.TID 0000.0001) %MON dynstat_uvel_sd              =   2.4753210974763E-03
(PID.TID 0000.0001) %MON dynstat_uvel_del2            =   3.9751858939133E-06
(PID.TID 0000.0001) %MON dynstat_vvel_max             =   4.2039008901680E-02
(PID.TID 0000.0001) %MON dynstat_vvel_min             =  -2.7100960819876E-02
(PID.TID 0000.0001) %MON dynstat_vvel_mean            =   2.0088561182386E-07
(PID.TID 0000.0001) %MON dynstat_vvel_sd              =   1.0408359537940E-03
(PID.TID 0000.0001) %MON dynstat_vvel_del2            =   2.6064150855185E-06
(PID.TID 0000.0001) %MON dynstat_wvel_max             =   2.8898832087453E-03
(PID.TID 0000.0001) %MON dynstat_wvel_min             =  -3.1735751355610E-03
(PID.TID 0000.0001) %MON dynstat_wvel_mean            =   6.4311888658355E-10
(PID.TID 0000.0001) %MON dynstat_wvel_sd              =   4.9550003841460E-05
(PID.TID 0000.0001) %MON dynstat_wvel_del2            =   1.7775995001741E-07
(PID.TID 0000.0001) %MON dynstat_theta_max            =   1.2000000000000E+00
(PID.TID 0000.0001) %MON dynstat_theta_min            =  -1.0000000000000E+00
(PID.TID 0000.0001) %MON dynstat_theta_mean           =   5.6459650125901E-01
(PID.TID 0000.0001) %MON dynstat_theta_sd             =   8.4870391557152E-01
(PID.TID 0000.0001) %MON dynstat_theta_del2           =   7.1543906239986E-06
(PID.TID 0000.0001) %MON dynstat_salt_max             =   3.4700000000000E+01
(PID.TID 0000.0001) %MON dynstat_salt_min             =   3.4000000000000E+01
(PID.TID 0000.0001) %MON dynstat_salt_mean            =   3.4497752717386E+01
(PID.TID 0000.0001) %MON dynstat_salt_sd              =   2.7002437310180E-01
(PID.TID 0000.0001) %MON dynstat_salt_del2            =   2.8378933912581E-06
(PID.TID 0000.0001) %MON advcfl_uvel_max              =   8.3392909310945E-03
(PID.TID 0000.0001) %MON advcfl_vvel_max              =   4.2039008901680E-03
(PID.TID 0000.0001) %MON advcfl_wvel_max              =   1.5867875677805E-02
(PID.TID 0000.0001) %MON advcfl_W_hf_max              =   1.5867875677805E-02
(PID.TID 0000.0001) %MON pe_b_mean                    =  -6.8059994196127E-01
(PID.TID 0000.0001) %MON ke_max                       =   3.3222748453026E-03
(PID.TID 0000.0001) %MON ke_mean                      =   3.5476706946007E-06
(PID.TID 0000.0001) %MON ke_vol                       =   4.6183338667562E+12
(PID.TID 0000.0001) // =======================================================
(PID.TID 0000.0001) // End MONITOR dynamic field statistics
(PID.TID 0000.0001) // =======================================================
(PID.TID 0000.0001) // =======================================================
(PID.TID 0000.0001) // Begin OBCS MONITOR field statistics
(PID.TID 0000.0001) // =======================================================
(PID.TID 0000.0001) %MON obc_N_vVel_max               =   1.2992859799776E-07
(PID.TID 0000.0001) %MON obc_N_vVel_min               =   1.2992859799776E-07
(PID.TID 0000.0001) %MON obc_N_vVel_mean              =   1.2992859799776E-07
(PID.TID 0000.0001) %MON obc_N_vVel_sd                =  -2.5243548967072E-29
(PID.TID 0000.0001) %MON obc_N_vVel_Int               =   8.5752874678523E+00
(PID.TID 0000.0001) // =======================================================
(PID.TID 0000.0001) // End OBCS MONITOR field statistics
(PID.TID 0000.0001) // =======================================================
 cg2d: Sum(rhs),rhsMax =   3.00317594114786E+00  4.53034451912981E+02
(PID.TID 0000.0001)      cg2d_init_res =   7.70184701167962E-06
(PID.TID 0000.0001)      cg2d_iters(min,last) =      -1      80
(PID.TID 0000.0001)      cg2d_last_res =   9.04921700635919E-12
(PID.TID 0000.0001) // =======================================================
(PID.TID 0000.0001) // Begin MONITOR dynamic field statistics
(PID.TID 0000.0001) // =======================================================
(PID.TID 0000.0001) %MON time_tsnumber                =                  1646
(PID.TID 0000.0001) %MON time_secondsf                =   1.6460000000000E+05
(PID.TID 0000.0001) %MON dynstat_eta_max              =   5.8002105327415E+00
(PID.TID 0000.0001) %MON dynstat_eta_min              =  -1.4163484789568E+01
(PID.TID 0000.0001) %MON dynstat_eta_mean             =  -2.5195225305485E+00
(PID.TID 0000.0001) %MON dynstat_eta_sd               =   4.9397665446123E+00
(PID.TID 0000.0001) %MON dynstat_eta_del2             =   1.9060136424641E-01
(PID.TID 0000.0001) %MON dynstat_uvel_max             =   1.8646087934419E-02
(PID.TID 0000.0001) %MON dynstat_uvel_min             =  -8.3534957626235E-02
(PID.TID 0000.0001) %MON dynstat_uvel_mean            =   8.8346495167202E-09
(PID.TID 0000.0001) %MON dynstat_uvel_sd              =   2.4800431318756E-03
(PID.TID 0000.0001) %MON dynstat_uvel_del2            =   3.9836097877682E-06
(PID.TID 0000.0001) %MON dynstat_vvel_max             =   4.2080816776914E-02
(PID.TID 0000.0001) %MON dynstat_vvel_min             =  -2.7164010204697E-02
(PID.TID 0000.0001) %MON dynstat_vvel_mean            =   2.0265116100105E-07
(PID.TID 0000.0001) %MON dynstat_vvel_sd              =   1.0426709964751E-03
(PID.TID 0000.0001) %MON dynstat_vvel_del2            =   2.6104392171954E-06
(PID.TID 0000.0001) %MON dynstat_wvel_max             =   2.8932781833681E-03
(PID.TID 0000.0001) %MON dynstat_wvel_min             =  -3.1729483398005E-03
(PID.TID 0000.0001) %MON dynstat_wvel_mean            =   6.4307085149248E-10
(PID.TID 0000.0001) %MON dynstat_wvel_sd              =   4.9613105671962E-05
(PID.TID 0000.0001) %MON dynstat_wvel_del2            =   1.7795812019564E-07
(PID.TID 0000.0001) %MON dynstat_theta_max            =   1.2000000000000E+00
(PID.TID 0000.0001) %MON dynstat_theta_min            =  -1.0000000000000E+00
(PID.TID 0000.0001) %MON dynstat_theta_mean           =   5.6459490385908E-01
(PID.TID 0000.0001) %MON dynstat_theta_sd             =   8.4870324573157E-01
(PID.TID 0000.0001) %MON dynstat_theta_del2           =   7.1651020660803E-06
(PID.TID 0000.0001) %MON dynstat_salt_max             =   3.4700000000000E+01
(PID.TID 0000.0001) %MON dynstat_salt_min             =   3.4000000000000E+01
(PID.TID 0000.0001) %MON dynstat_salt_mean            =   3.4497752078461E+01
(PID.TID 0000.0001) %MON dynstat_salt_sd              =   2.7002412611028E-01
(PID.TID 0000.0001) %MON dynstat_salt_del2            =   2.8421671319887E-06
(PID.TID 0000.0001) %MON advcfl_uvel_max              =   8.3534957626235E-03
(PID.TID 0000.0001) %MON advcfl_vvel_max              =   4.2080816776914E-03
(PID.TID 0000.0001) %MON advcfl_wvel_max              =   1.5864741699003E-02
(PID.TID 0000.0001) %MON advcfl_W_hf_max              =   1.5864741699003E-02
(PID.TID 0000.0001) %MON pe_b_mean                    =  -6.8059563284789E-01
(PID.TID 0000.0001) %MON ke_max                       =   3.3337670436488E-03
(PID.TID 0000.0001) %MON ke_mean                      =   3.5610620689921E-06
(PID.TID 0000.0001) %MON ke_vol                       =   4.6183339514033E+12
(PID.TID 0000.0001) // =======================================================
(PID.TID 0000.0001) // End MONITOR dynamic field statistics
(PID.TID 0000.0001) // =======================================================
(PID.TID 0000.0001) // =======================================================
(PID.TID 0000.0001) // Begin OBCS MONITOR field statistics
(PID.TID 0000.0001) // =======================================================
(PID.TID 0000.0001) %MON obc_N_vVel_max               =   1.3158057129658E-07
(PID.TID 0000.0001) %MON obc_N_vVel_min               =   1.3158057129658E-07
(PID.TID 0000.0001) %MON obc_N_vVel_mean              =   1.3158057129658E-07
(PID.TID 0000.0001) %MON obc_N_vVel_sd                =  -6.1846694969327E-28
(PID.TID 0000.0001) %MON obc_N_vVel_Int               =   8.6843177055742E+00
(PID.TID 0000.0001) // =======================================================
(PID.TID 0000.0001) // End OBCS MONITOR field statistics
(PID.TID 0000.0001) // =======================================================
 cg2d: Sum(rhs),rhsMax =   3.00315907882809E+00  4.53034426091781E+02
(PID.TID 0000.0001)      cg2d_init_res =   7.71205021401336E-06
(PID.TID 0000.0001)      cg2d_iters(min,last) =      -1      80
(PID.TID 0000.0001)      cg2d_last_res =   9.06387760947071E-12
(PID.TID 0000.0001) // =======================================================
(PID.TID 0000.0001) // Begin MONITOR dynamic field statistics
(PID.TID 0000.0001) // =======================================================
(PID.TID 0000.0001) %MON time_tsnumber                =                  1647
(PID.TID 0000.0001) %MON time_secondsf                =   1.6470000000000E+05
(PID.TID 0000.0001) %MON dynstat_eta_max              =   5.8002144376899E+00
(PID.TID 0000.0001) %MON dynstat_eta_min              =  -1.4163481110025E+01
(PID.TID 0000.0001) %MON dynstat_eta_mean             =  -2.5195082402578E+00
(PID.TID 0000.0001) %MON dynstat_eta_sd               =   4.9397623968137E+00
(PID.TID 0000.0001) %MON dynstat_eta_del2             =   1.9060140604606E-01
(PID.TID 0000.0001) %MON dynstat_uvel_max             =   1.8678804715918E-02
(PID.TID 0000.0001) %MON dynstat_uvel_min             =  -8.3677078001184E-02
(PID.TID 0000.0001) %MON dynstat_uvel_mean            =   8.8557816156737E-09
(PID.TID 0000.0001) %MON dynstat_uvel_sd              =   2.4847703438060E-03
(PID.TID 0000.0001) %MON dynstat_uvel_del2            =   3.9920470238287E-06
(PID.TID 0000.0001) %MON dynstat_vvel_max             =   4.2122608211693E-02
(PID.TID 0000.0001) %MON dynstat_vvel_min             =  -2.7227108367693E-02
(PID.TID 0000.0001) %MON dynstat_vvel_mean            =   2.0427740479889E-07
(PID.TID 0000.0001) %MON dynstat_vvel_sd              =   1.0445086100842E-03
(PID.TID 0000.0001) %MON dynstat_vvel_del2            =   2.6144674383605E-06
(PID.TID 0000.0001) %MON dynstat_wvel_max             =   2.8966700310145E-03
(PID.TID 0000.0001) %MON dynstat_wvel_min             =  -3.1722981281013E-03
(PID.TID 0000.0001) %MON dynstat_wvel_mean            =   6.4281846125758E-10
(PID.TID 0000.0001) %MON dynstat_wvel_sd              =   4.9676202370987E-05
(PID.TID 0000.0001) %MON dynstat_wvel_del2            =   1.7815634048733E-07
(PID.TID 0000.0001) %MON dynstat_theta_max            =   1.2000000000000E+00
(PID.TID 0000.0001) %MON dynstat_theta_min            =  -1.0000000000000E+00
(PID.TID 0000.0001) %MON dynstat_theta_mean           =   5.6459330404366E-01
(PID.TID 0000.0001) %MON dynstat_theta_sd             =   8.4870257514793E-01
(PID.TID 0000.0001) %MON dynstat_theta_del2           =   7.1758227422805E-06
(PID.TID 0000.0001) %MON dynstat_salt_max             =   3.4700000000000E+01
(PID.TID 0000.0001) %MON dynstat_salt_min             =   3.4000000000000E+01
(PID.TID 0000.0001) %MON dynstat_salt_mean            =   3.4497751438569E+01
(PID.TID 0000.0001) %MON dynstat_salt_sd              =   2.7002387887609E-01
(PID.TID 0000.0001) %MON dynstat_salt_del2            =   2.8464445426982E-06
(PID.TID 0000.0001) %MON advcfl_uvel_max              =   8.3677078001184E-03
(PID.TID 0000.0001) %MON advcfl_vvel_max              =   4.2122608211693E-03
(PID.TID 0000.0001) %MON advcfl_wvel_max              =   1.5861490640506E-02
(PID.TID 0000.0001) %MON advcfl_W_hf_max              =   1.5861490640506E-02
(PID.TID 0000.0001) %MON pe_b_mean                    =  -6.8059131749200E-01
(PID.TID 0000.0001) %MON ke_max                       =   3.3452775549495E-03
(PID.TID 0000.0001) %MON ke_mean                      =   3.5744939975018E-06
(PID.TID 0000.0001) %MON ke_vol                       =   4.6183340361685E+12
(PID.TID 0000.0001) // =======================================================
(PID.TID 0000.0001) // End MONITOR dynamic field statistics
(PID.TID 0000.0001) // =======================================================
(PID.TID 0000.0001) // =======================================================
(PID.TID 0000.0001) // Begin OBCS MONITOR field statistics
(PID.TID 0000.0001) // =======================================================
(PID.TID 0000.0001) %MON obc_N_vVel_max               =   1.3312072110083E-07
(PID.TID 0000.0001) %MON obc_N_vVel_min               =   1.3312072110083E-07
(PID.TID 0000.0001) %MON obc_N_vVel_mean              =   1.3312072110083E-07
(PID.TID 0000.0001) %MON obc_N_vVel_sd                =  -1.1264933726556E-27
(PID.TID 0000.0001) %MON obc_N_vVel_Int               =   8.7859675926549E+00
(PID.TID 0000.0001) // =======================================================
(PID.TID 0000.0001) // End OBCS MONITOR field statistics
(PID.TID 0000.0001) // =======================================================
 cg2d: Sum(rhs),rhsMax =   3.00314219260371E+00  4.53034400242027E+02
(PID.TID 0000.0001)      cg2d_init_res =   7.72226895269529E-06
(PID.TID 0000.0001)      cg2d_iters(min,last) =      -1      80
(PID.TID 0000.0001)      cg2d_last_res =   9.07855213985064E-12
(PID.TID 0000.0001) // =======================================================
(PID.TID 0000.0001) // Begin MONITOR dynamic field statistics
(PID.TID 0000.0001) // =======================================================
(PID.TID 0000.0001) %MON time_tsnumber                =                  1648
(PID.TID 0000.0001) %MON time_secondsf                =   1.6480000000000E+05
(PID.TID 0000.0001) %MON dynstat_eta_max              =   5.8002183373694E+00
(PID.TID 0000.0001) %MON dynstat_eta_min              =  -1.4163477429885E+01
(PID.TID 0000.0001) %MON dynstat_eta_mean             =  -2.5194939297551E+00
(PID.TID 0000.0001) %MON dynstat_eta_sd               =   4.9397582427491E+00
(PID.TID 0000.0001) %MON dynstat_eta_del2             =   1.9060144789477E-01
(PID.TID 0000.0001) %MON dynstat_uvel_max             =   1.8711531342401E-02
(PID.TID 0000.0001) %MON dynstat_uvel_min             =  -8.3819269748627E-02
(PID.TID 0000.0001) %MON dynstat_uvel_mean            =   8.8780832511213E-09
(PID.TID 0000.0001) %MON dynstat_uvel_sd              =   2.4895027271036E-03
(PID.TID 0000.0001) %MON dynstat_uvel_del2            =   4.0004976007068E-06
(PID.TID 0000.0001) %MON dynstat_vvel_max             =   4.2164383212713E-02
(PID.TID 0000.0001) %MON dynstat_vvel_min             =  -2.7290254818954E-02
(PID.TID 0000.0001) %MON dynstat_vvel_mean            =   2.0573736807667E-07
(PID.TID 0000.0001) %MON dynstat_vvel_sd              =   1.0463488204637E-03
(PID.TID 0000.0001) %MON dynstat_vvel_del2            =   2.6184998356010E-06
(PID.TID 0000.0001) %MON dynstat_wvel_max             =   2.9000587352839E-03
(PID.TID 0000.0001) %MON dynstat_wvel_min             =  -3.1716247061837E-03
(PID.TID 0000.0001) %MON dynstat_wvel_mean            =   6.4238972667651E-10
(PID.TID 0000.0001) %MON dynstat_wvel_sd              =   4.9739372463909E-05
(PID.TID 0000.0001) %MON dynstat_wvel_del2            =   1.7835489323282E-07
(PID.TID 0000.0001) %MON dynstat_theta_max            =   1.2000000000000E+00
(PID.TID 0000.0001) %MON dynstat_theta_min            =  -1.0000000000000E+00
(PID.TID 0000.0001) %MON dynstat_theta_mean           =   5.6459170181175E-01
(PID.TID 0000.0001) %MON dynstat_theta_sd             =   8.4870190382080E-01
(PID.TID 0000.0001) %MON dynstat_theta_del2           =   7.1865528475290E-06
(PID.TID 0000.0001) %MON dynstat_salt_max             =   3.4700000000000E+01
(PID.TID 0000.0001) %MON dynstat_salt_min             =   3.4000000000000E+01
(PID.TID 0000.0001) %MON dynstat_salt_mean            =   3.4497750797710E+01
(PID.TID 0000.0001) %MON dynstat_salt_sd              =   2.7002363139939E-01
(PID.TID 0000.0001) %MON dynstat_salt_del2            =   2.8507256020694E-06
(PID.TID 0000.0001) %MON advcfl_uvel_max              =   8.3819269748627E-03
(PID.TID 0000.0001) %MON advcfl_vvel_max              =   4.2164383212713E-03
(PID.TID 0000.0001) %MON advcfl_wvel_max              =   1.5858123530918E-02
(PID.TID 0000.0001) %MON advcfl_W_hf_max              =   1.5858123530918E-02
(PID.TID 0000.0001) %MON pe_b_mean                    =  -6.8058699585252E-01
(PID.TID 0000.0001) %MON ke_max                       =   3.3568063130632E-03
(PID.TID 0000.0001) %MON ke_mean                      =   3.5879665783249E-06
(PID.TID 0000.0001) %MON ke_vol                       =   4.6183341210529E+12
(PID.TID 0000.0001) // =======================================================
(PID.TID 0000.0001) // End MONITOR dynamic field statistics
(PID.TID 0000.0001) // =======================================================
(PID.TID 0000.0001) // =======================================================
(PID.TID 0000.0001) // Begin OBCS MONITOR field statistics
(PID.TID 0000.0001) // =======================================================
(PID.TID 0000.0001) %MON obc_N_vVel_max               =   1.3452137700822E-07
(PID.TID 0000.0001) %MON obc_N_vVel_min               =   1.3452137700821E-07
(PID.TID 0000.0001) %MON obc_N_vVel_mean              =   1.3452137700822E-07
(PID.TID 0000.0001) %MON obc_N_vVel_sd                =  -1.0476072821335E-27
(PID.TID 0000.0001) %MON obc_N_vVel_Int               =   8.8784108825424E+00
(PID.TID 0000.0001) // =======================================================
(PID.TID 0000.0001) // End OBCS MONITOR field statistics
(PID.TID 0000.0001) // =======================================================
 cg2d: Sum(rhs),rhsMax =   3.00312528227038E+00  4.53034374359406E+02
(PID.TID 0000.0001)      cg2d_init_res =   7.73249944368875E-06
(PID.TID 0000.0001)      cg2d_iters(min,last) =      -1      80
(PID.TID 0000.0001)      cg2d_last_res =   9.09324345050809E-12
(PID.TID 0000.0001) // =======================================================
(PID.TID 0000.0001) // Begin MONITOR dynamic field statistics
(PID.TID 0000.0001) // =======================================================
(PID.TID 0000.0001) %MON time_tsnumber                =                  1649
(PID.TID 0000.0001) %MON time_secondsf                =   1.6490000000000E+05
(PID.TID 0000.0001) %MON dynstat_eta_max              =   5.8002222320363E+00
(PID.TID 0000.0001) %MON dynstat_eta_min              =  -1.4163473748739E+01
(PID.TID 0000.0001) %MON dynstat_eta_mean             =  -2.5194795988450E+00
(PID.TID 0000.0001) %MON dynstat_eta_sd               =   4.9397540823333E+00
(PID.TID 0000.0001) %MON dynstat_eta_del2             =   1.9060148979229E-01
(PID.TID 0000.0001) %MON dynstat_uvel_max             =   1.8744267592587E-02
(PID.TID 0000.0001) %MON dynstat_uvel_min             =  -8.3961532174111E-02
(PID.TID 0000.0001) %MON dynstat_uvel_mean            =   8.9014598073958E-09
(PID.TID 0000.0001) %MON dynstat_uvel_sd              =   2.4942402756178E-03
(PID.TID 0000.0001) %MON dynstat_uvel_del2            =   4.0089615162004E-06
(PID.TID 0000.0001) %MON dynstat_vvel_max             =   4.2206141782833E-02
(PID.TID 0000.0001) %MON dynstat_vvel_min             =  -2.7353449065842E-02
(PID.TID 0000.0001) %MON dynstat_vvel_mean            =   2.0700833914006E-07
(PID.TID 0000.0001) %MON dynstat_vvel_sd              =   1.0481916523391E-03
(PID.TID 0000.0001) %MON dynstat_vvel_del2            =   2.6225364933175E-06
(PID.TID 0000.0001) %MON dynstat_wvel_max             =   2.9034442798301E-03
(PID.TID 0000.0001) %MON dynstat_wvel_min             =  -3.1709282812265E-03
(PID.TID 0000.0001) %MON dynstat_wvel_mean            =   6.4181734446871E-10
(PID.TID 0000.0001) %MON dynstat_wvel_sd              =   4.9802691058877E-05
(PID.TID 0000.0001) %MON dynstat_wvel_del2            =   1.7855406486726E-07
(PID.TID 0000.0001) %MON dynstat_theta_max            =   1.2000000000000E+00
(PID.TID 0000.0001) %MON dynstat_theta_min            =  -1.0000000000000E+00
(PID.TID 0000.0001) %MON dynstat_theta_mean           =   5.6459009716242E-01
(PID.TID 0000.0001) %MON dynstat_theta_sd             =   8.4870123174962E-01
(PID.TID 0000.0001) %MON dynstat_theta_del2           =   7.1972920537431E-06
(PID.TID 0000.0001) %MON dynstat_salt_max             =   3.4700000000000E+01
(PID.TID 0000.0001) %MON dynstat_salt_min             =   3.4000000000000E+01
(PID.TID 0000.0001) %MON dynstat_salt_mean            =   3.4497750155885E+01
(PID.TID 0000.0001) %MON dynstat_salt_sd              =   2.7002338368019E-01
(PID.TID 0000.0001) %MON dynstat_salt_del2            =   2.8550101689088E-06
(PID.TID 0000.0001) %MON advcfl_uvel_max              =   8.3961532174111E-03
(PID.TID 0000.0001) %MON advcfl_vvel_max              =   4.2206141782833E-03
(PID.TID 0000.0001) %MON advcfl_wvel_max              =   1.5854641406133E-02
(PID.TID 0000.0001) %MON advcfl_W_hf_max              =   1.5854641406133E-02
(PID.TID 0000.0001) %MON pe_b_mean                    =  -6.8058266788376E-01
(PID.TID 0000.0001) %MON ke_max                       =   3.3683532529101E-03
(PID.TID 0000.0001) %MON ke_mean                      =   3.6014799086933E-06
(PID.TID 0000.0001) %MON ke_vol                       =   4.6183342060573E+12
(PID.TID 0000.0001) // =======================================================
(PID.TID 0000.0001) // End MONITOR dynamic field statistics
(PID.TID 0000.0001) // =======================================================
(PID.TID 0000.0001) // =======================================================
(PID.TID 0000.0001) // Begin OBCS MONITOR field statistics
(PID.TID 0000.0001) // =======================================================
(PID.TID 0000.0001) %MON obc_N_vVel_max               =   1.3575849486804E-07
(PID.TID 0000.0001) %MON obc_N_vVel_min               =   1.3575849486804E-07
(PID.TID 0000.0001) %MON obc_N_vVel_mean              =   1.3575849486804E-07
(PID.TID 0000.0001) %MON obc_N_vVel_sd                =  -3.3763246743459E-28
(PID.TID 0000.0001) %MON obc_N_vVel_Int               =   8.9600606612905E+00
(PID.TID 0000.0001) // =======================================================
(PID.TID 0000.0001) // End OBCS MONITOR field statistics
(PID.TID 0000.0001) // =======================================================
 cg2d: Sum(rhs),rhsMax =   3.00310834759591E+00  4.53034348439808E+02
(PID.TID 0000.0001)      cg2d_init_res =   7.74274468110580E-06
(PID.TID 0000.0001)      cg2d_iters(min,last) =      -1      80
(PID.TID 0000.0001)      cg2d_last_res =   9.10799775054730E-12
(PID.TID 0000.0001) // =======================================================
(PID.TID 0000.0001) // Begin MONITOR dynamic field statistics
(PID.TID 0000.0001) // =======================================================
(PID.TID 0000.0001) %MON time_tsnumber                =                  1650
(PID.TID 0000.0001) %MON time_secondsf                =   1.6500000000000E+05
(PID.TID 0000.0001) %MON dynstat_eta_max              =   5.8002261219964E+00
(PID.TID 0000.0001) %MON dynstat_eta_min              =  -1.4163470066126E+01
(PID.TID 0000.0001) %MON dynstat_eta_mean             =  -2.5194652473098E+00
(PID.TID 0000.0001) %MON dynstat_eta_sd               =   4.9397499154844E+00
(PID.TID 0000.0001) %MON dynstat_eta_del2             =   1.9060153173870E-01
(PID.TID 0000.0001) %MON dynstat_uvel_max             =   1.8777013243894E-02
(PID.TID 0000.0001) %MON dynstat_uvel_min             =  -8.4103864575933E-02
(PID.TID 0000.0001) %MON dynstat_uvel_mean            =   8.9257633364257E-09
(PID.TID 0000.0001) %MON dynstat_uvel_sd              =   2.4989829832060E-03
(PID.TID 0000.0001) %MON dynstat_uvel_del2            =   4.0174387683328E-06
(PID.TID 0000.0001) %MON dynstat_vvel_max             =   4.2247883921211E-02
(PID.TID 0000.0001) %MON dynstat_vvel_min             =  -2.7416690612920E-02
(PID.TID 0000.0001) %MON dynstat_vvel_mean            =   2.0807233819945E-07
(PID.TID 0000.0001) %MON dynstat_vvel_sd              =   1.0500371282955E-03
(PID.TID 0000.0001) %MON dynstat_vvel_del2            =   2.6265774892616E-06
(PID.TID 0000.0001) %MON dynstat_wvel_max             =   2.9068266483928E-03
(PID.TID 0000.0001) %MON dynstat_wvel_min             =  -3.1702090618494E-03
(PID.TID 0000.0001) %MON dynstat_wvel_mean            =   6.4113703946188E-10
(PID.TID 0000.0001) %MON dynstat_wvel_sd              =   4.9866225966259E-05
(PID.TID 0000.0001) %MON dynstat_wvel_del2            =   1.7875412929313E-07
(PID.TID 0000.0001) %MON dynstat_theta_max            =   1.2000000000000E+00
(PID.TID 0000.0001) %MON dynstat_theta_min            =  -1.0000000000000E+00
(PID.TID 0000.0001) %MON dynstat_theta_mean           =   5.6458849009484E-01
(PID.TID 0000.0001) %MON dynstat_theta_sd             =   8.4870055893480E-01
(PID.TID 0000.0001) %MON dynstat_theta_del2           =   7.2080403169218E-06
(PID.TID 0000.0001) %MON dynstat_salt_max             =   3.4700000000000E+01
(PID.TID 0000.0001) %MON dynstat_salt_min             =   3.4000000000000E+01
(PID.TID 0000.0001) %MON dynstat_salt_mean            =   3.4497749513091E+01
(PID.TID 0000.0001) %MON dynstat_salt_sd              =   2.7002313571888E-01
(PID.TID 0000.0001) %MON dynstat_salt_del2            =   2.8592983404457E-06
(PID.TID 0000.0001) %MON advcfl_uvel_max              =   8.4103864575933E-03
(PID.TID 0000.0001) %MON advcfl_vvel_max              =   4.2247883921211E-03
(PID.TID 0000.0001) %MON advcfl_wvel_max              =   1.5851045309247E-02
(PID.TID 0000.0001) %MON advcfl_W_hf_max              =   1.5851045309247E-02
(PID.TID 0000.0001) %MON pe_b_mean                    =  -6.8057833353648E-01
(PID.TID 0000.0001) %MON ke_max                       =   3.3799183103678E-03
(PID.TID 0000.0001) %MON ke_mean                      =   3.6150340837794E-06
(PID.TID 0000.0001) %MON ke_vol                       =   4.6183342911829E+12
(PID.TID 0000.0001) // =======================================================
(PID.TID 0000.0001) // End MONITOR dynamic field statistics
(PID.TID 0000.0001) // =======================================================
(PID.TID 0000.0001) // =======================================================
(PID.TID 0000.0001) // Begin OBCS MONITOR field statistics
(PID.TID 0000.0001) // =======================================================
(PID.TID 0000.0001) %MON obc_N_vVel_max               =   1.3681215344472E-07
(PID.TID 0000.0001) %MON obc_N_vVel_min               =   1.3681215344472E-07
(PID.TID 0000.0001) %MON obc_N_vVel_mean              =   1.3681215344472E-07
(PID.TID 0000.0001) %MON obc_N_vVel_sd                =  -4.7331654313261E-29
(PID.TID 0000.0001) %MON obc_N_vVel_Int               =   9.0296021273516E+00
(PID.TID 0000.0001) // =======================================================
(PID.TID 0000.0001) // End OBCS MONITOR field statistics
(PID.TID 0000.0001) // =======================================================
 cg2d: Sum(rhs),rhsMax =   3.00309138832616E+00  4.53034322479444E+02
(PID.TID 0000.0001)      cg2d_init_res =   7.75302468959038E-06
(PID.TID 0000.0001)      cg2d_iters(min,last) =      -1      80
(PID.TID 0000.0001)      cg2d_last_res =   9.12272939046246E-12
(PID.TID 0000.0001) // =======================================================
(PID.TID 0000.0001) // Begin MONITOR dynamic field statistics
(PID.TID 0000.0001) // =======================================================
(PID.TID 0000.0001) %MON time_tsnumber                =                  1651
(PID.TID 0000.0001) %MON time_secondsf                =   1.6510000000000E+05
(PID.TID 0000.0001) %MON dynstat_eta_max              =   5.8002300075910E+00
(PID.TID 0000.0001) %MON dynstat_eta_min              =  -1.4163466381555E+01
(PID.TID 0000.0001) %MON dynstat_eta_mean             =  -2.5194508749152E+00
(PID.TID 0000.0001) %MON dynstat_eta_sd               =   4.9397457421105E+00
(PID.TID 0000.0001) %MON dynstat_eta_del2             =   1.9060157373364E-01
(PID.TID 0000.0001) %MON dynstat_uvel_max             =   1.8809768072528E-02
(PID.TID 0000.0001) %MON dynstat_uvel_min             =  -8.4246266244541E-02
(PID.TID 0000.0001) %MON dynstat_uvel_mean            =   8.9508047572633E-09
(PID.TID 0000.0001) %MON dynstat_uvel_sd              =   2.5037308438020E-03
(PID.TID 0000.0001) %MON dynstat_uvel_del2            =   4.0259293548455E-06
(PID.TID 0000.0001) %MON dynstat_vvel_max             =   4.2289609609644E-02
(PID.TID 0000.0001) %MON dynstat_vvel_min             =  -2.7479978961157E-02
(PID.TID 0000.0001) %MON dynstat_vvel_mean            =   2.0891649995658E-07
(PID.TID 0000.0001) %MON dynstat_vvel_sd              =   1.0518852677231E-03
(PID.TID 0000.0001) %MON dynstat_vvel_del2            =   2.6306228918514E-06
(PID.TID 0000.0001) %MON dynstat_wvel_max             =   2.9102058242031E-03
(PID.TID 0000.0001) %MON dynstat_wvel_min             =  -3.1694672581507E-03
(PID.TID 0000.0001) %MON dynstat_wvel_mean            =   6.4038738761520E-10
(PID.TID 0000.0001) %MON dynstat_wvel_sd              =   4.9930034218543E-05
(PID.TID 0000.0001) %MON dynstat_wvel_del2            =   1.7895533312651E-07
(PID.TID 0000.0001) %MON dynstat_theta_max            =   1.2000000000000E+00
(PID.TID 0000.0001) %MON dynstat_theta_min            =  -1.0000000000000E+00
(PID.TID 0000.0001) %MON dynstat_theta_mean           =   5.6458688060827E-01
(PID.TID 0000.0001) %MON dynstat_theta_sd             =   8.4869988537500E-01
(PID.TID 0000.0001) %MON dynstat_theta_del2           =   7.2187975908036E-06
(PID.TID 0000.0001) %MON dynstat_salt_max             =   3.4700000000000E+01
(PID.TID 0000.0001) %MON dynstat_salt_min             =   3.4000000000000E+01
(PID.TID 0000.0001) %MON dynstat_salt_mean            =   3.4497748869330E+01
(PID.TID 0000.0001) %MON dynstat_salt_sd              =   2.7002288751538E-01
(PID.TID 0000.0001) %MON dynstat_salt_del2            =   2.8635901331031E-06
(PID.TID 0000.0001) %MON advcfl_uvel_max              =   8.4246266244541E-03
(PID.TID 0000.0001) %MON advcfl_vvel_max              =   4.2289609609644E-03
(PID.TID 0000.0001) %MON advcfl_wvel_max              =   1.5847336290754E-02
(PID.TID 0000.0001) %MON advcfl_W_hf_max              =   1.5847336290754E-02
(PID.TID 0000.0001) %MON pe_b_mean                    =  -6.8057399275914E-01
(PID.TID 0000.0001) %MON ke_max                       =   3.3915014221603E-03
(PID.TID 0000.0001) %MON ke_mean                      =   3.6286291957355E-06
(PID.TID 0000.0001) %MON ke_vol                       =   4.6183343764310E+12
(PID.TID 0000.0001) // =======================================================
(PID.TID 0000.0001) // End MONITOR dynamic field statistics
(PID.TID 0000.0001) // =======================================================
(PID.TID 0000.0001) // =======================================================
(PID.TID 0000.0001) // Begin OBCS MONITOR field statistics
(PID.TID 0000.0001) // =======================================================
(PID.TID 0000.0001) %MON obc_N_vVel_max               =   1.3766698800226E-07
(PID.TID 0000.0001) %MON obc_N_vVel_min               =   1.3766698800225E-07
(PID.TID 0000.0001) %MON obc_N_vVel_mean              =   1.3766698800226E-07
(PID.TID 0000.0001) %MON obc_N_vVel_sd                =  -1.1959131323151E-27
(PID.TID 0000.0001) %MON obc_N_vVel_Int               =   9.0860212081490E+00
(PID.TID 0000.0001) // =======================================================
(PID.TID 0000.0001) // End OBCS MONITOR field statistics
(PID.TID 0000.0001) // =======================================================
 cg2d: Sum(rhs),rhsMax =   3.00307440419020E+00  4.53034296474921E+02
(PID.TID 0000.0001)      cg2d_init_res =   7.76331959098153E-06
(PID.TID 0000.0001)      cg2d_iters(min,last) =      -1      80
(PID.TID 0000.0001)      cg2d_last_res =   9.13748848304148E-12
(PID.TID 0000.0001) // =======================================================
(PID.TID 0000.0001) // Begin MONITOR dynamic field statistics
(PID.TID 0000.0001) // =======================================================
(PID.TID 0000.0001) %MON time_tsnumber                =                  1652
(PID.TID 0000.0001) %MON time_secondsf                =   1.6520000000000E+05
(PID.TID 0000.0001) %MON dynstat_eta_max              =   5.8002338891936E+00
(PID.TID 0000.0001) %MON dynstat_eta_min              =  -1.4163462694541E+01
(PID.TID 0000.0001) %MON dynstat_eta_mean             =  -2.5194364814151E+00
(PID.TID 0000.0001) %MON dynstat_eta_sd               =   4.9397415621274E+00
(PID.TID 0000.0001) %MON dynstat_eta_del2             =   1.9060161577711E-01
(PID.TID 0000.0001) %MON dynstat_uvel_max             =   1.8842531853905E-02
(PID.TID 0000.0001) %MON dynstat_uvel_min             =  -8.4388736461783E-02
(PID.TID 0000.0001) %MON dynstat_uvel_mean            =   8.9763602383803E-09
(PID.TID 0000.0001) %MON dynstat_uvel_sd              =   2.5084838513605E-03
(PID.TID 0000.0001) %MON dynstat_uvel_del2            =   4.0344332730588E-06
(PID.TID 0000.0001) %MON dynstat_vvel_max             =   4.2331318858154E-02
(PID.TID 0000.0001) %MON dynstat_vvel_min             =  -2.7543313607609E-02
(PID.TID 0000.0001) %MON dynstat_vvel_mean            =   2.0953329594135E-07
(PID.TID 0000.0001) %MON dynstat_vvel_sd              =   1.0537360862813E-03
(PID.TID 0000.0001) %MON dynstat_vvel_del2            =   2.6346727547582E-06
(PID.TID 0000.0001) %MON dynstat_wvel_max             =   2.9135817913313E-03
(PID.TID 0000.0001) %MON dynstat_wvel_min             =  -3.1687030816934E-03
(PID.TID 0000.0001) %MON dynstat_wvel_mean            =   6.3960804488111E-10
(PID.TID 0000.0001) %MON dynstat_wvel_sd              =   4.9994159064508E-05
(PID.TID 0000.0001) %MON dynstat_wvel_del2            =   1.7915787860913E-07
(PID.TID 0000.0001) %MON dynstat_theta_max            =   1.2000000000000E+00
(PID.TID 0000.0001) %MON dynstat_theta_min            =  -1.0000000000000E+00
(PID.TID 0000.0001) %MON dynstat_theta_mean           =   5.6458526870207E-01
(PID.TID 0000.0001) %MON dynstat_theta_sd             =   8.4869921106939E-01
(PID.TID 0000.0001) %MON dynstat_theta_del2           =   7.2295639095197E-06
(PID.TID 0000.0001) %MON dynstat_salt_max             =   3.4700000000000E+01
(PID.TID 0000.0001) %MON dynstat_salt_min             =   3.4000000000000E+01
(PID.TID 0000.0001) %MON dynstat_salt_mean            =   3.4497748224600E+01
(PID.TID 0000.0001) %MON dynstat_salt_sd              =   2.7002263906935E-01
(PID.TID 0000.0001) %MON dynstat_salt_del2            =   2.8678855356769E-06
(PID.TID 0000.0001) %MON advcfl_uvel_max              =   8.4388736461783E-03
(PID.TID 0000.0001) %MON advcfl_vvel_max              =   4.2331318858154E-03
(PID.TID 0000.0001) %MON advcfl_wvel_max              =   1.5843515408467E-02
(PID.TID 0000.0001) %MON advcfl_W_hf_max              =   1.5843515408467E-02
(PID.TID 0000.0001) %MON pe_b_mean                    =  -6.8056964549895E-01
(PID.TID 0000.0001) %MON ke_max                       =   3.4031025258200E-03
(PID.TID 0000.0001) %MON ke_mean                      =   3.6422653329653E-06
(PID.TID 0000.0001) %MON ke_vol                       =   4.6183344618030E+12
(PID.TID 0000.0001) // =======================================================
(PID.TID 0000.0001) // End MONITOR dynamic field statistics
(PID.TID 0000.0001) // =======================================================
(PID.TID 0000.0001) // =======================================================
(PID.TID 0000.0001) // Begin OBCS MONITOR field statistics
(PID.TID 0000.0001) // =======================================================
(PID.TID 0000.0001) %MON obc_N_vVel_max               =   1.3831244928634E-07
(PID.TID 0000.0001) %MON obc_N_vVel_min               =   1.3831244928634E-07
(PID.TID 0000.0001) %MON obc_N_vVel_mean              =   1.3831244928634E-07
(PID.TID 0000.0001) %MON obc_N_vVel_sd                =  -7.1313025831979E-28
(PID.TID 0000.0001) %MON obc_N_vVel_Int               =   9.1286216528986E+00
(PID.TID 0000.0001) // =======================================================
(PID.TID 0000.0001) // End OBCS MONITOR field statistics
(PID.TID 0000.0001) // =======================================================
 cg2d: Sum(rhs),rhsMax =   3.00305739490708E+00  4.53034270423316E+02
(PID.TID 0000.0001)      cg2d_init_res =   7.77363526933716E-06
(PID.TID 0000.0001)      cg2d_iters(min,last) =      -1      80
(PID.TID 0000.0001)      cg2d_last_res =   9.15228207521812E-12
(PID.TID 0000.0001) // =======================================================
(PID.TID 0000.0001) // Begin MONITOR dynamic field statistics
(PID.TID 0000.0001) // =======================================================
(PID.TID 0000.0001) %MON time_tsnumber                =                  1653
(PID.TID 0000.0001) %MON time_secondsf                =   1.6530000000000E+05
(PID.TID 0000.0001) %MON dynstat_eta_max              =   5.8002377671894E+00
(PID.TID 0000.0001) %MON dynstat_eta_min              =  -1.4163459004565E+01
(PID.TID 0000.0001) %MON dynstat_eta_mean             =  -2.5194220665576E+00
(PID.TID 0000.0001) %MON dynstat_eta_sd               =   4.9397373754516E+00
(PID.TID 0000.0001) %MON dynstat_eta_del2             =   1.9060165786900E-01
(PID.TID 0000.0001) %MON dynstat_uvel_max             =   1.8875304362818E-02
(PID.TID 0000.0001) %MON dynstat_uvel_min             =  -8.4531274500954E-02
(PID.TID 0000.0001) %MON dynstat_uvel_mean            =   9.0021731457509E-09
(PID.TID 0000.0001) %MON dynstat_uvel_sd              =   2.5132419998732E-03
(PID.TID 0000.0001) %MON dynstat_uvel_del2            =   4.0429505203102E-06
(PID.TID 0000.0001) %MON dynstat_vvel_max             =   4.2373011647435E-02
(PID.TID 0000.0001) %MON dynstat_vvel_min             =  -2.7606694045119E-02
(PID.TID 0000.0001) %MON dynstat_vvel_mean            =   2.0992068160996E-07
(PID.TID 0000.0001) %MON dynstat_vvel_sd              =   1.0555895952716E-03
(PID.TID 0000.0001) %MON dynstat_vvel_del2            =   2.6387271153358E-06
(PID.TID 0000.0001) %MON dynstat_wvel_max             =   2.9169545338495E-03
(PID.TID 0000.0001) %MON dynstat_wvel_min             =  -3.1679167454936E-03
(PID.TID 0000.0001) %MON dynstat_wvel_mean            =   6.3883860491161E-10
(PID.TID 0000.0001) %MON dynstat_wvel_sd              =   5.0058627765616E-05
(PID.TID 0000.0001) %MON dynstat_wvel_del2            =   1.7936191349192E-07
(PID.TID 0000.0001) %MON dynstat_theta_max            =   1.2000000000000E+00
(PID.TID 0000.0001) %MON dynstat_theta_min            =  -1.0000000000000E+00
(PID.TID 0000.0001) %MON dynstat_theta_mean           =   5.6458365437567E-01
(PID.TID 0000.0001) %MON dynstat_theta_sd             =   8.4869853601642E-01
(PID.TID 0000.0001) %MON dynstat_theta_del2           =   7.2403391793528E-06
(PID.TID 0000.0001) %MON dynstat_salt_max             =   3.4700000000000E+01
(PID.TID 0000.0001) %MON dynstat_salt_min             =   3.4000000000000E+01
(PID.TID 0000.0001) %MON dynstat_salt_mean            =   3.4497747578902E+01
(PID.TID 0000.0001) %MON dynstat_salt_sd              =   2.7002239038064E-01
(PID.TID 0000.0001) %MON dynstat_salt_del2            =   2.8721845428125E-06
(PID.TID 0000.0001) %MON advcfl_uvel_max              =   8.4531274500954E-03
(PID.TID 0000.0001) %MON advcfl_vvel_max              =   4.2373011647435E-03
(PID.TID 0000.0001) %MON advcfl_wvel_max              =   1.5839583727468E-02
(PID.TID 0000.0001) %MON advcfl_W_hf_max              =   1.5839583727468E-02
(PID.TID 0000.0001) %MON pe_b_mean                    =  -6.8056529170300E-01
(PID.TID 0000.0001) %MON ke_max                       =   3.4147215597081E-03
(PID.TID 0000.0001) %MON ke_mean                      =   3.6559425794674E-06
(PID.TID 0000.0001) %MON ke_vol                       =   4.6183345473004E+12
(PID.TID 0000.0001) // =======================================================
(PID.TID 0000.0001) // End MONITOR dynamic field statistics
(PID.TID 0000.0001) // =======================================================
(PID.TID 0000.0001) // =======================================================
(PID.TID 0000.0001) // Begin OBCS MONITOR field statistics
(PID.TID 0000.0001) // =======================================================
(PID.TID 0000.0001) %MON obc_N_vVel_max               =   1.3874308888332E-07
(PID.TID 0000.0001) %MON obc_N_vVel_min               =   1.3874308888332E-07
(PID.TID 0000.0001) %MON obc_N_vVel_mean              =   1.3874308888332E-07
(PID.TID 0000.0001) %MON obc_N_vVel_sd                =   2.7690662683923E-14
(PID.TID 0000.0001) %MON obc_N_vVel_Int               =   9.1570438662989E+00
(PID.TID 0000.0001) // =======================================================
(PID.TID 0000.0001) // End OBCS MONITOR field statistics
(PID.TID 0000.0001) // =======================================================
 cg2d: Sum(rhs),rhsMax =   3.00304036019181E+00  4.53034244322241E+02
(PID.TID 0000.0001)      cg2d_init_res =   7.78397296704489E-06
(PID.TID 0000.0001)      cg2d_iters(min,last) =      -1      80
(PID.TID 0000.0001)      cg2d_last_res =   9.16710949268989E-12
(PID.TID 0000.0001) // =======================================================
(PID.TID 0000.0001) // Begin MONITOR dynamic field statistics
(PID.TID 0000.0001) // =======================================================
(PID.TID 0000.0001) %MON time_tsnumber                =                  1654
(PID.TID 0000.0001) %MON time_secondsf                =   1.6540000000000E+05
(PID.TID 0000.0001) %MON dynstat_eta_max              =   5.8002416419753E+00
(PID.TID 0000.0001) %MON dynstat_eta_min              =  -1.4163455311124E+01
(PID.TID 0000.0001) %MON dynstat_eta_mean             =  -2.5194076300902E+00
(PID.TID 0000.0001) %MON dynstat_eta_sd               =   4.9397331820055E+00
(PID.TID 0000.0001) %MON dynstat_eta_del2             =   1.9060170000929E-01
(PID.TID 0000.0001) %MON dynstat_uvel_max             =   1.8908085373256E-02
(PID.TID 0000.0001) %MON dynstat_uvel_min             =  -8.4673879627243E-02
(PID.TID 0000.0001) %MON dynstat_uvel_mean            =   9.0279538068753E-09
(PID.TID 0000.0001) %MON dynstat_uvel_sd              =   2.5180052833774E-03
(PID.TID 0000.0001) %MON dynstat_uvel_del2            =   4.0514810939719E-06
(PID.TID 0000.0001) %MON dynstat_vvel_max             =   4.2414687965326E-02
(PID.TID 0000.0001) %MON dynstat_vvel_min             =  -2.7670119762373E-02
(PID.TID 0000.0001) %MON dynstat_vvel_mean            =   2.1008208566479E-07
(PID.TID 0000.0001) %MON dynstat_vvel_sd              =   1.0574458012875E-03
(PID.TID 0000.0001) %MON dynstat_vvel_del2            =   2.6427859927359E-06
(PID.TID 0000.0001) %MON dynstat_wvel_max             =   2.9203240354406E-03
(PID.TID 0000.0001) %MON dynstat_wvel_min             =  -3.1671084639002E-03
(PID.TID 0000.0001) %MON dynstat_wvel_mean            =   6.3811819238878E-10
(PID.TID 0000.0001) %MON dynstat_wvel_sd              =   5.0123450225606E-05
(PID.TID 0000.0001) %MON dynstat_wvel_del2            =   1.7956752199411E-07
(PID.TID 0000.0001) %MON dynstat_theta_max            =   1.2000000000000E+00
(PID.TID 0000.0001) %MON dynstat_theta_min            =  -1.0000000000000E+00
(PID.TID 0000.0001) %MON dynstat_theta_mean           =   5.6458203762856E-01
(PID.TID 0000.0001) %MON dynstat_theta_sd             =   8.4869786021421E-01
(PID.TID 0000.0001) %MON dynstat_theta_del2           =   7.2511233990903E-06
(PID.TID 0000.0001) %MON dynstat_salt_max             =   3.4700000000000E+01
(PID.TID 0000.0001) %MON dynstat_salt_min             =   3.4000000000000E+01
(PID.TID 0000.0001) %MON dynstat_salt_mean            =   3.4497746932235E+01
(PID.TID 0000.0001) %MON dynstat_salt_sd              =   2.7002214144892E-01
(PID.TID 0000.0001) %MON dynstat_salt_del2            =   2.8764871545934E-06
(PID.TID 0000.0001) %MON advcfl_uvel_max              =   8.4673879627243E-03
(PID.TID 0000.0001) %MON advcfl_vvel_max              =   4.2414687965326E-03
(PID.TID 0000.0001) %MON advcfl_wvel_max              =   1.5835542319501E-02
(PID.TID 0000.0001) %MON advcfl_W_hf_max              =   1.5835542319501E-02
(PID.TID 0000.0001) %MON pe_b_mean                    =  -6.8056093131949E-01
(PID.TID 0000.0001) %MON ke_max                       =   3.4263584630681E-03
(PID.TID 0000.0001) %MON ke_mean                      =   3.6696610144468E-06
(PID.TID 0000.0001) %MON ke_vol                       =   4.6183346329246E+12
(PID.TID 0000.0001) // =======================================================
(PID.TID 0000.0001) // End MONITOR dynamic field statistics
(PID.TID 0000.0001) // =======================================================
(PID.TID 0000.0001) // =======================================================
(PID.TID 0000.0001) // Begin OBCS MONITOR field statistics
(PID.TID 0000.0001) // =======================================================
(PID.TID 0000.0001) %MON obc_N_vVel_max               =   1.3895860988799E-07
(PID.TID 0000.0001) %MON obc_N_vVel_min               =   1.3895860988799E-07
(PID.TID 0000.0001) %MON obc_N_vVel_mean              =   1.3895860988799E-07
(PID.TID 0000.0001) %MON obc_N_vVel_sd                =  -1.4073278549143E-27
(PID.TID 0000.0001) %MON obc_N_vVel_Int               =   9.1712682526072E+00
(PID.TID 0000.0001) // =======================================================
(PID.TID 0000.0001) // End OBCS MONITOR field statistics
(PID.TID 0000.0001) // =======================================================
 cg2d: Sum(rhs),rhsMax =   3.00302329976180E+00  4.53034218169875E+02
(PID.TID 0000.0001)      cg2d_init_res =   7.79433044152698E-06
(PID.TID 0000.0001)      cg2d_iters(min,last) =      -1      80
(PID.TID 0000.0001)      cg2d_last_res =   9.18197645748402E-12
(PID.TID 0000.0001) // =======================================================
(PID.TID 0000.0001) // Begin MONITOR dynamic field statistics
(PID.TID 0000.0001) // =======================================================
(PID.TID 0000.0001) %MON time_tsnumber                =                  1655
(PID.TID 0000.0001) %MON time_secondsf                =   1.6550000000000E+05
(PID.TID 0000.0001) %MON dynstat_eta_max              =   5.8002455139466E+00
(PID.TID 0000.0001) %MON dynstat_eta_min              =  -1.4163451613740E+01
(PID.TID 0000.0001) %MON dynstat_eta_mean             =  -2.5193931717657E+00
(PID.TID 0000.0001) %MON dynstat_eta_sd               =   4.9397289817174E+00
(PID.TID 0000.0001) %MON dynstat_eta_del2             =   1.9060174219795E-01
(PID.TID 0000.0001) %MON dynstat_uvel_max             =   1.8940874658240E-02
(PID.TID 0000.0001) %MON dynstat_uvel_min             =  -8.4816551098346E-02
(PID.TID 0000.0001) %MON dynstat_uvel_mean            =   9.0533982684627E-09
(PID.TID 0000.0001) %MON dynstat_uvel_sd              =   2.5227736959567E-03
(PID.TID 0000.0001) %MON dynstat_uvel_del2            =   4.0600249913967E-06
(PID.TID 0000.0001) %MON dynstat_vvel_max             =   4.2456347795842E-02
(PID.TID 0000.0001) %MON dynstat_vvel_min             =  -2.7733590244292E-02
(PID.TID 0000.0001) %MON dynstat_vvel_mean            =   2.1002628165452E-07
(PID.TID 0000.0001) %MON dynstat_vvel_sd              =   1.0593047061247E-03
(PID.TID 0000.0001) %MON dynstat_vvel_del2            =   2.6468493872652E-06
(PID.TID 0000.0001) %MON dynstat_wvel_max             =   2.9236902801634E-03
(PID.TID 0000.0001) %MON dynstat_wvel_min             =  -3.1662784525873E-03
(PID.TID 0000.0001) %MON dynstat_wvel_mean            =   6.3748412612674E-10
(PID.TID 0000.0001) %MON dynstat_wvel_sd              =   5.0188618539206E-05
(PID.TID 0000.0001) %MON dynstat_wvel_del2            =   1.7977472015916E-07
(PID.TID 0000.0001) %MON dynstat_theta_max            =   1.2000000000000E+00
(PID.TID 0000.0001) %MON dynstat_theta_min            =  -1.0000000000000E+00
(PID.TID 0000.0001) %MON dynstat_theta_mean           =   5.6458041846025E-01
(PID.TID 0000.0001) %MON dynstat_theta_sd             =   8.4869718366069E-01
(PID.TID 0000.0001) %MON dynstat_theta_del2           =   7.2619163119927E-06
(PID.TID 0000.0001) %MON dynstat_salt_max             =   3.4700000000000E+01
(PID.TID 0000.0001) %MON dynstat_salt_min             =   3.4000000000000E+01
(PID.TID 0000.0001) %MON dynstat_salt_mean            =   3.4497746284598E+01
(PID.TID 0000.0001) %MON dynstat_salt_sd              =   2.7002189227348E-01
(PID.TID 0000.0001) %MON dynstat_salt_del2            =   2.8807932851484E-06
(PID.TID 0000.0001) %MON advcfl_uvel_max              =   8.4816551098346E-03
(PID.TID 0000.0001) %MON advcfl_vvel_max              =   4.2456347795842E-03
(PID.TID 0000.0001) %MON advcfl_wvel_max              =   1.5831392262936E-02
(PID.TID 0000.0001) %MON advcfl_W_hf_max              =   1.5831392262936E-02
(PID.TID 0000.0001) %MON pe_b_mean                    =  -6.8055656429876E-01
(PID.TID 0000.0001) %MON ke_max                       =   3.4380131760795E-03
(PID.TID 0000.0001) %MON ke_mean                      =   3.6834207121795E-06
(PID.TID 0000.0001) %MON ke_vol                       =   4.6183347186773E+12
(PID.TID 0000.0001) // =======================================================
(PID.TID 0000.0001) // End MONITOR dynamic field statistics
(PID.TID 0000.0001) // =======================================================
(PID.TID 0000.0001) // =======================================================
(PID.TID 0000.0001) // Begin OBCS MONITOR field statistics
(PID.TID 0000.0001) // =======================================================
(PID.TID 0000.0001) %MON obc_N_vVel_max               =   1.3896386939170E-07
(PID.TID 0000.0001) %MON obc_N_vVel_min               =   1.3896386939170E-07
(PID.TID 0000.0001) %MON obc_N_vVel_mean              =   1.3896386939170E-07
(PID.TID 0000.0001) %MON obc_N_vVel_sd                =   3.3232593448442E-14
(PID.TID 0000.0001) %MON obc_N_vVel_Int               =   9.1716153798522E+00
(PID.TID 0000.0001) // =======================================================
(PID.TID 0000.0001) // End OBCS MONITOR field statistics
(PID.TID 0000.0001) // =======================================================
 cg2d: Sum(rhs),rhsMax =   3.00300621334386E+00  4.53034191964985E+02
(PID.TID 0000.0001)      cg2d_init_res =   7.80470638909893E-06
(PID.TID 0000.0001)      cg2d_iters(min,last) =      -1      80
(PID.TID 0000.0001)      cg2d_last_res =   9.19688551716027E-12
(PID.TID 0000.0001) // =======================================================
(PID.TID 0000.0001) // Begin MONITOR dynamic field statistics
(PID.TID 0000.0001) // =======================================================
(PID.TID 0000.0001) %MON time_tsnumber                =                  1656
(PID.TID 0000.0001) %MON time_secondsf                =   1.6560000000000E+05
(PID.TID 0000.0001) %MON dynstat_eta_max              =   5.8002493834844E+00
(PID.TID 0000.0001) %MON dynstat_eta_min              =  -1.4163447911959E+01
(PID.TID 0000.0001) %MON dynstat_eta_mean             =  -2.5193786913483E+00
(PID.TID 0000.0001) %MON dynstat_eta_sd               =   4.9397247745236E+00
(PID.TID 0000.0001) %MON dynstat_eta_del2             =   1.9060178443497E-01
(PID.TID 0000.0001) %MON dynstat_uvel_max             =   1.8973671989936E-02
(PID.TID 0000.0001) %MON dynstat_uvel_min             =  -8.4959288164214E-02
(PID.TID 0000.0001) %MON dynstat_uvel_mean            =   9.0782069622648E-09
(PID.TID 0000.0001) %MON dynstat_uvel_sd              =   2.5275472317373E-03
(PID.TID 0000.0001) %MON dynstat_uvel_del2            =   4.0685822098357E-06
(PID.TID 0000.0001) %MON dynstat_vvel_max             =   4.2497991118958E-02
(PID.TID 0000.0001) %MON dynstat_vvel_min             =  -2.7797104972013E-02
(PID.TID 0000.0001) %MON dynstat_vvel_mean            =   2.0976714252406E-07
(PID.TID 0000.0001) %MON dynstat_vvel_sd              =   1.0611663069934E-03
(PID.TID 0000.0001) %MON dynstat_vvel_del2            =   2.6509172809540E-06
(PID.TID 0000.0001) %MON dynstat_wvel_max             =   2.9270532520881E-03
(PID.TID 0000.0001) %MON dynstat_wvel_min             =  -3.1654269284262E-03
(PID.TID 0000.0001) %MON dynstat_wvel_mean            =   6.3697168736212E-10
(PID.TID 0000.0001) %MON dynstat_wvel_sd              =   5.0254107481315E-05
(PID.TID 0000.0001) %MON dynstat_wvel_del2            =   1.7998345519519E-07
(PID.TID 0000.0001) %MON dynstat_theta_max            =   1.2000000000000E+00
(PID.TID 0000.0001) %MON dynstat_theta_min            =  -1.0000000000000E+00
(PID.TID 0000.0001) %MON dynstat_theta_mean           =   5.6457879687032E-01
(PID.TID 0000.0001) %MON dynstat_theta_sd             =   8.4869650635359E-01
(PID.TID 0000.0001) %MON dynstat_theta_del2           =   7.2727180019236E-06
(PID.TID 0000.0001) %MON dynstat_salt_max             =   3.4700000000000E+01
(PID.TID 0000.0001) %MON dynstat_salt_min             =   3.4000000000000E+01
(PID.TID 0000.0001) %MON dynstat_salt_mean            =   3.4497745635993E+01
(PID.TID 0000.0001) %MON dynstat_salt_sd              =   2.7002164285379E-01
(PID.TID 0000.0001) %MON dynstat_salt_del2            =   2.8851028859076E-06
(PID.TID 0000.0001) %MON advcfl_uvel_max              =   8.4959288164214E-03
(PID.TID 0000.0001) %MON advcfl_vvel_max              =   4.2497991118958E-03
(PID.TID 0000.0001) %MON advcfl_wvel_max              =   1.5827134642131E-02
(PID.TID 0000.0001) %MON advcfl_W_hf_max              =   1.5827134642131E-02
(PID.TID 0000.0001) %MON pe_b_mean                    =  -6.8055219059444E-01
(PID.TID 0000.0001) %MON ke_max                       =   3.4496856398623E-03
(PID.TID 0000.0001) %MON ke_mean                      =   3.6972217421845E-06
(PID.TID 0000.0001) %MON ke_vol                       =   4.6183348045597E+12
(PID.TID 0000.0001) // =======================================================
(PID.TID 0000.0001) // End MONITOR dynamic field statistics
(PID.TID 0000.0001) // =======================================================
(PID.TID 0000.0001) // =======================================================
(PID.TID 0000.0001) // Begin OBCS MONITOR field statistics
(PID.TID 0000.0001) // =======================================================
(PID.TID 0000.0001) %MON obc_N_vVel_max               =   1.3876869035091E-07
(PID.TID 0000.0001) %MON obc_N_vVel_min               =   1.3876869035091E-07
(PID.TID 0000.0001) %MON obc_N_vVel_mean              =   1.3876869035091E-07
(PID.TID 0000.0001) %MON obc_N_vVel_sd                =  -9.1507865005637E-29
(PID.TID 0000.0001) %MON obc_N_vVel_Int               =   9.1587335631604E+00
(PID.TID 0000.0001) // =======================================================
(PID.TID 0000.0001) // End OBCS MONITOR field statistics
(PID.TID 0000.0001) // =======================================================
 cg2d: Sum(rhs),rhsMax =   3.00298910067994E+00  4.53034165706971E+02
(PID.TID 0000.0001)      cg2d_init_res =   7.81510012384570E-06
(PID.TID 0000.0001)      cg2d_iters(min,last) =      -1      80
(PID.TID 0000.0001)      cg2d_last_res =   9.21184464327098E-12
(PID.TID 0000.0001) // =======================================================
(PID.TID 0000.0001) // Begin MONITOR dynamic field statistics
(PID.TID 0000.0001) // =======================================================
(PID.TID 0000.0001) %MON time_tsnumber                =                  1657
(PID.TID 0000.0001) %MON time_secondsf                =   1.6570000000000E+05
(PID.TID 0000.0001) %MON dynstat_eta_max              =   5.8002532509517E+00
(PID.TID 0000.0001) %MON dynstat_eta_min              =  -1.4163444205343E+01
(PID.TID 0000.0001) %MON dynstat_eta_mean             =  -2.5193641886179E+00
(PID.TID 0000.0001) %MON dynstat_eta_sd               =   4.9397205603698E+00
(PID.TID 0000.0001) %MON dynstat_eta_del2             =   1.9060182672039E-01
(PID.TID 0000.0001) %MON dynstat_uvel_max             =   1.9006477137623E-02
(PID.TID 0000.0001) %MON dynstat_uvel_min             =  -8.5102090067217E-02
(PID.TID 0000.0001) %MON dynstat_uvel_mean            =   9.1020997845834E-09
(PID.TID 0000.0001) %MON dynstat_uvel_sd              =   2.5323258849011E-03
(PID.TID 0000.0001) %MON dynstat_uvel_del2            =   4.0771527466693E-06
(PID.TID 0000.0001) %MON dynstat_vvel_max             =   4.2539617933899E-02
(PID.TID 0000.0001) %MON dynstat_vvel_min             =  -2.7860663422747E-02
(PID.TID 0000.0001) %MON dynstat_vvel_mean            =   2.0932325040001E-07
(PID.TID 0000.0001) %MON dynstat_vvel_sd              =   1.0630305969053E-03
(PID.TID 0000.0001) %MON dynstat_vvel_del2            =   2.6549896391377E-06
(PID.TID 0000.0001) %MON dynstat_wvel_max             =   2.9304129445432E-03
(PID.TID 0000.0001) %MON dynstat_wvel_min             =  -3.1645541094709E-03
(PID.TID 0000.0001) %MON dynstat_wvel_mean            =   6.3661261184245E-10
(PID.TID 0000.0001) %MON dynstat_wvel_sd              =   5.0319875952693E-05
(PID.TID 0000.0001) %MON dynstat_wvel_del2            =   1.8019360940742E-07
(PID.TID 0000.0001) %MON dynstat_theta_max            =   1.2000000000000E+00
(PID.TID 0000.0001) %MON dynstat_theta_min            =  -1.0000000000000E+00
(PID.TID 0000.0001) %MON dynstat_theta_mean           =   5.6457717285839E-01
(PID.TID 0000.0001) %MON dynstat_theta_sd             =   8.4869582829237E-01
(PID.TID 0000.0001) %MON dynstat_theta_del2           =   7.2835287299693E-06
(PID.TID 0000.0001) %MON dynstat_salt_max             =   3.4700000000000E+01
(PID.TID 0000.0001) %MON dynstat_salt_min             =   3.4000000000000E+01
(PID.TID 0000.0001) %MON dynstat_salt_mean            =   3.4497744986417E+01
(PID.TID 0000.0001) %MON dynstat_salt_sd              =   2.7002139319005E-01
(PID.TID 0000.0001) %MON dynstat_salt_del2            =   2.8894161554804E-06
(PID.TID 0000.0001) %MON advcfl_uvel_max              =   8.5102090067217E-03
(PID.TID 0000.0001) %MON advcfl_vvel_max              =   4.2539617933899E-03
(PID.TID 0000.0001) %MON advcfl_wvel_max              =   1.5822770547355E-02
(PID.TID 0000.0001) %MON advcfl_W_hf_max              =   1.5822770547355E-02
(PID.TID 0000.0001) %MON pe_b_mean                    =  -6.8054781016445E-01
(PID.TID 0000.0001) %MON ke_max                       =   3.4613757964822E-03
(PID.TID 0000.0001) %MON ke_mean                      =   3.7110641696252E-06
(PID.TID 0000.0001) %MON ke_vol                       =   4.6183348905734E+12
(PID.TID 0000.0001) // =======================================================
(PID.TID 0000.0001) // End MONITOR dynamic field statistics
(PID.TID 0000.0001) // =======================================================
(PID.TID 0000.0001) // =======================================================
(PID.TID 0000.0001) // Begin OBCS MONITOR field statistics
(PID.TID 0000.0001) // =======================================================
(PID.TID 0000.0001) %MON obc_N_vVel_max               =   1.3838759242913E-07
(PID.TID 0000.0001) %MON obc_N_vVel_min               =   1.3838759242913E-07
(PID.TID 0000.0001) %MON obc_N_vVel_mean              =   1.3838759242913E-07
(PID.TID 0000.0001) %MON obc_N_vVel_sd                =   3.3610248679183E-14
(PID.TID 0000.0001) %MON obc_N_vVel_Int               =   9.1335811003226E+00
(PID.TID 0000.0001) // =======================================================
(PID.TID 0000.0001) // End OBCS MONITOR field statistics
(PID.TID 0000.0001) // =======================================================
 cg2d: Sum(rhs),rhsMax =   3.00297196153270E+00  4.53034139395824E+02
(PID.TID 0000.0001)      cg2d_init_res =   7.82550453912602E-06
(PID.TID 0000.0001)      cg2d_iters(min,last) =      -1      80
(PID.TID 0000.0001)      cg2d_last_res =   9.22685185629563E-12
(PID.TID 0000.0001) // =======================================================
(PID.TID 0000.0001) // Begin MONITOR dynamic field statistics
(PID.TID 0000.0001) // =======================================================
(PID.TID 0000.0001) %MON time_tsnumber                =                  1658
(PID.TID 0000.0001) %MON time_secondsf                =   1.6580000000000E+05
(PID.TID 0000.0001) %MON dynstat_eta_max              =   5.8002571166886E+00
(PID.TID 0000.0001) %MON dynstat_eta_min              =  -1.4163440493519E+01
(PID.TID 0000.0001) %MON dynstat_eta_mean             =  -2.5193496633755E+00
(PID.TID 0000.0001) %MON dynstat_eta_sd               =   4.9397163392120E+00
(PID.TID 0000.0001) %MON dynstat_eta_del2             =   1.9060186905418E-01
(PID.TID 0000.0001) %MON dynstat_uvel_max             =   1.9039289870466E-02
(PID.TID 0000.0001) %MON dynstat_uvel_min             =  -8.5244956042228E-02
(PID.TID 0000.0001) %MON dynstat_uvel_mean            =   9.1248345764792E-09
(PID.TID 0000.0001) %MON dynstat_uvel_sd              =   2.5371096496326E-03
(PID.TID 0000.0001) %MON dynstat_uvel_del2            =   4.0857365994953E-06
(PID.TID 0000.0001) %MON dynstat_vvel_max             =   4.2581228092220E-02
(PID.TID 0000.0001) %MON dynstat_vvel_min             =  -2.7924265070165E-02
(PID.TID 0000.0001) %MON dynstat_vvel_mean            =   2.0871736582746E-07
(PID.TID 0000.0001) %MON dynstat_vvel_sd              =   1.0648975650866E-03
(PID.TID 0000.0001) %MON dynstat_vvel_del2            =   2.6590664118556E-06
(PID.TID 0000.0001) %MON dynstat_wvel_max             =   2.9337692922334E-03
(PID.TID 0000.0001) %MON dynstat_wvel_min             =  -3.1636602149158E-03
(PID.TID 0000.0001) %MON dynstat_wvel_mean            =   6.3643307545165E-10
(PID.TID 0000.0001) %MON dynstat_wvel_sd              =   5.0385868986455E-05
(PID.TID 0000.0001) %MON dynstat_wvel_del2            =   1.8040500545015E-07
(PID.TID 0000.0001) %MON dynstat_theta_max            =   1.2000000000000E+00
(PID.TID 0000.0001) %MON dynstat_theta_min            =  -1.0000000000000E+00
(PID.TID 0000.0001) %MON dynstat_theta_mean           =   5.6457554642404E-01
(PID.TID 0000.0001) %MON dynstat_theta_sd             =   8.4869514947573E-01
(PID.TID 0000.0001) %MON dynstat_theta_del2           =   7.2943484993603E-06
(PID.TID 0000.0001) %MON dynstat_salt_max             =   3.4700000000000E+01
(PID.TID 0000.0001) %MON dynstat_salt_min             =   3.4000000000000E+01
(PID.TID 0000.0001) %MON dynstat_salt_mean            =   3.4497744335872E+01
(PID.TID 0000.0001) %MON dynstat_salt_sd              =   2.7002114328205E-01
(PID.TID 0000.0001) %MON dynstat_salt_del2            =   2.8937330645434E-06
(PID.TID 0000.0001) %MON advcfl_uvel_max              =   8.5244956042228E-03
(PID.TID 0000.0001) %MON advcfl_vvel_max              =   4.2581228092220E-03
(PID.TID 0000.0001) %MON advcfl_wvel_max              =   1.5818301074579E-02
(PID.TID 0000.0001) %MON advcfl_W_hf_max              =   1.5818301074579E-02
(PID.TID 0000.0001) %MON pe_b_mean                    =  -6.8054342297167E-01
(PID.TID 0000.0001) %MON ke_max                       =   3.4730835889800E-03
(PID.TID 0000.0001) %MON ke_mean                      =   3.7249480555791E-06
(PID.TID 0000.0001) %MON ke_vol                       =   4.6183349767196E+12
(PID.TID 0000.0001) // =======================================================
(PID.TID 0000.0001) // End MONITOR dynamic field statistics
(PID.TID 0000.0001) // =======================================================
(PID.TID 0000.0001) // =======================================================
(PID.TID 0000.0001) // Begin OBCS MONITOR field statistics
(PID.TID 0000.0001) // =======================================================
(PID.TID 0000.0001) %MON obc_N_vVel_max               =   1.3783938494127E-07
(PID.TID 0000.0001) %MON obc_N_vVel_min               =   1.3783938494126E-07
(PID.TID 0000.0001) %MON obc_N_vVel_mean              =   1.3783938494127E-07
(PID.TID 0000.0001) %MON obc_N_vVel_sd                =  -1.4578149528484E-27
(PID.TID 0000.0001) %MON obc_N_vVel_Int               =   9.0973994061236E+00
(PID.TID 0000.0001) // =======================================================
(PID.TID 0000.0001) // End OBCS MONITOR field statistics
(PID.TID 0000.0001) // =======================================================
 cg2d: Sum(rhs),rhsMax =   3.00295479569092E+00  4.53034113032128E+02
(PID.TID 0000.0001)      cg2d_init_res =   7.83591699323291E-06
(PID.TID 0000.0001)      cg2d_iters(min,last) =      -1      80
(PID.TID 0000.0001)      cg2d_last_res =   9.24190085986582E-12
(PID.TID 0000.0001) // =======================================================
(PID.TID 0000.0001) // Begin MONITOR dynamic field statistics
(PID.TID 0000.0001) // =======================================================
(PID.TID 0000.0001) %MON time_tsnumber                =                  1659
(PID.TID 0000.0001) %MON time_secondsf                =   1.6590000000000E+05
(PID.TID 0000.0001) %MON dynstat_eta_max              =   5.8002609809986E+00
(PID.TID 0000.0001) %MON dynstat_eta_min              =  -1.4163436776137E+01
(PID.TID 0000.0001) %MON dynstat_eta_mean             =  -2.5193351154471E+00
(PID.TID 0000.0001) %MON dynstat_eta_sd               =   4.9397121110185E+00
(PID.TID 0000.0001) %MON dynstat_eta_del2             =   1.9060191143646E-01
(PID.TID 0000.0001) %MON dynstat_uvel_max             =   1.9072109966321E-02
(PID.TID 0000.0001) %MON dynstat_uvel_min             =  -8.5387885318937E-02
(PID.TID 0000.0001) %MON dynstat_uvel_mean            =   9.1462132259443E-09
(PID.TID 0000.0001) %MON dynstat_uvel_sd              =   2.5418985201267E-03
(PID.TID 0000.0001) %MON dynstat_uvel_del2            =   4.0943337652024E-06
(PID.TID 0000.0001) %MON dynstat_vvel_max             =   4.2622821588044E-02
(PID.TID 0000.0001) %MON dynstat_vvel_min             =  -2.7987909385001E-02
(PID.TID 0000.0001) %MON dynstat_vvel_mean            =   2.0797588512750E-07
(PID.TID 0000.0001) %MON dynstat_vvel_sd              =   1.0667671979097E-03
(PID.TID 0000.0001) %MON dynstat_vvel_del2            =   2.6631475369320E-06
(PID.TID 0000.0001) %MON dynstat_wvel_max             =   2.9371222894554E-03
(PID.TID 0000.0001) %MON dynstat_wvel_min             =  -3.1627453060682E-03
(PID.TID 0000.0001) %MON dynstat_wvel_mean            =   6.3645601370210E-10
(PID.TID 0000.0001) %MON dynstat_wvel_sd              =   5.0452020843009E-05
(PID.TID 0000.0001) %MON dynstat_wvel_del2            =   1.8061741734784E-07
(PID.TID 0000.0001) %MON dynstat_theta_max            =   1.2000000000000E+00
(PID.TID 0000.0001) %MON dynstat_theta_min            =  -1.0000000000000E+00
(PID.TID 0000.0001) %MON dynstat_theta_mean           =   5.6457391756691E-01
(PID.TID 0000.0001) %MON dynstat_theta_sd             =   8.4869446990287E-01
(PID.TID 0000.0001) %MON dynstat_theta_del2           =   7.3051774037746E-06
(PID.TID 0000.0001) %MON dynstat_salt_max             =   3.4700000000000E+01
(PID.TID 0000.0001) %MON dynstat_salt_min             =   3.4000000000000E+01
(PID.TID 0000.0001) %MON dynstat_salt_mean            =   3.4497743684356E+01
(PID.TID 0000.0001) %MON dynstat_salt_sd              =   2.7002089312954E-01
(PID.TID 0000.0001) %MON dynstat_salt_del2            =   2.8980536230334E-06
(PID.TID 0000.0001) %MON advcfl_uvel_max              =   8.5387885318937E-03
(PID.TID 0000.0001) %MON advcfl_vvel_max              =   4.2622821588044E-03
(PID.TID 0000.0001) %MON advcfl_wvel_max              =   1.5813726530341E-02
(PID.TID 0000.0001) %MON advcfl_W_hf_max              =   1.5813726530341E-02
(PID.TID 0000.0001) %MON pe_b_mean                    =  -6.8053902898490E-01
(PID.TID 0000.0001) %MON ke_max                       =   3.4848089613742E-03
(PID.TID 0000.0001) %MON ke_mean                      =   3.7388734580157E-06
(PID.TID 0000.0001) %MON ke_vol                       =   4.6183350629995E+12
(PID.TID 0000.0001) // =======================================================
(PID.TID 0000.0001) // End MONITOR dynamic field statistics
(PID.TID 0000.0001) // =======================================================
(PID.TID 0000.0001) // =======================================================
(PID.TID 0000.0001) // Begin OBCS MONITOR field statistics
(PID.TID 0000.0001) // =======================================================
(PID.TID 0000.0001) %MON obc_N_vVel_max               =   1.3714666778336E-07
(PID.TID 0000.0001) %MON obc_N_vVel_min               =   1.3714666778335E-07
(PID.TID 0000.0001) %MON obc_N_vVel_mean              =   1.3714666778335E-07
(PID.TID 0000.0001) %MON obc_N_vVel_sd                =   3.7724064905822E-14
(PID.TID 0000.0001) %MON obc_N_vVel_Int               =   9.0516800737014E+00
(PID.TID 0000.0001) // =======================================================
(PID.TID 0000.0001) // End OBCS MONITOR field statistics
(PID.TID 0000.0001) // =======================================================
 cg2d: Sum(rhs),rhsMax =   3.00293760297411E+00  4.53034086617008E+02
(PID.TID 0000.0001)      cg2d_init_res =   7.84633752616955E-06
(PID.TID 0000.0001)      cg2d_iters(min,last) =      -1      80
(PID.TID 0000.0001)      cg2d_last_res =   9.25699964077434E-12
(PID.TID 0000.0001) // =======================================================
(PID.TID 0000.0001) // Begin MONITOR dynamic field statistics
(PID.TID 0000.0001) // =======================================================
(PID.TID 0000.0001) %MON time_tsnumber                =                  1660
(PID.TID 0000.0001) %MON time_secondsf                =   1.6600000000000E+05
(PID.TID 0000.0001) %MON dynstat_eta_max              =   5.8002648441534E+00
(PID.TID 0000.0001) %MON dynstat_eta_min              =  -1.4163433052927E+01
(PID.TID 0000.0001) %MON dynstat_eta_mean             =  -2.5193205446875E+00
(PID.TID 0000.0001) %MON dynstat_eta_sd               =   4.9397078757689E+00
(PID.TID 0000.0001) %MON dynstat_eta_del2             =   1.9060195386731E-01
(PID.TID 0000.0001) %MON dynstat_uvel_max             =   1.9104937204198E-02
(PID.TID 0000.0001) %MON dynstat_uvel_min             =  -8.5530877119911E-02
(PID.TID 0000.0001) %MON dynstat_uvel_mean            =   9.1660939068737E-09
(PID.TID 0000.0001) %MON dynstat_uvel_sd              =   2.5466924906677E-03
(PID.TID 0000.0001) %MON dynstat_uvel_del2            =   4.1029442410781E-06
(PID.TID 0000.0001) %MON dynstat_vvel_max             =   4.2664398394037E-02
(PID.TID 0000.0001) %MON dynstat_vvel_min             =  -2.8051595834274E-02
(PID.TID 0000.0001) %MON dynstat_vvel_mean            =   2.0712817078830E-07
(PID.TID 0000.0001) %MON dynstat_vvel_sd              =   1.0686394797800E-03
(PID.TID 0000.0001) %MON dynstat_vvel_del2            =   2.6672329453496E-06
(PID.TID 0000.0001) %MON dynstat_wvel_max             =   2.9404719208955E-03
(PID.TID 0000.0001) %MON dynstat_wvel_min             =  -3.1618096075332E-03
(PID.TID 0000.0001) %MON dynstat_wvel_mean            =   6.3669933458472E-10
(PID.TID 0000.0001) %MON dynstat_wvel_sd              =   5.0518258684798E-05
(PID.TID 0000.0001) %MON dynstat_wvel_del2            =   1.8083058678923E-07
(PID.TID 0000.0001) %MON dynstat_theta_max            =   1.2000000000000E+00
(PID.TID 0000.0001) %MON dynstat_theta_min            =  -1.0000000000000E+00
(PID.TID 0000.0001) %MON dynstat_theta_mean           =   5.6457228628659E-01
(PID.TID 0000.0001) %MON dynstat_theta_sd             =   8.4869378957335E-01
(PID.TID 0000.0001) %MON dynstat_theta_del2           =   7.3160155117163E-06
(PID.TID 0000.0001) %MON dynstat_salt_max             =   3.4700000000000E+01
(PID.TID 0000.0001) %MON dynstat_salt_min             =   3.4000000000000E+01
(PID.TID 0000.0001) %MON dynstat_salt_mean            =   3.4497743031870E+01
(PID.TID 0000.0001) %MON dynstat_salt_sd              =   2.7002064273287E-01
(PID.TID 0000.0001) %MON dynstat_salt_del2            =   2.9023778499129E-06
(PID.TID 0000.0001) %MON advcfl_uvel_max              =   8.5530877119911E-03
(PID.TID 0000.0001) %MON advcfl_vvel_max              =   4.2664398394037E-03
(PID.TID 0000.0001) %MON advcfl_wvel_max              =   1.5809048037666E-02
(PID.TID 0000.0001) %MON advcfl_W_hf_max              =   1.5809048037666E-02
(PID.TID 0000.0001) %MON pe_b_mean                    =  -6.8053462817938E-01
(PID.TID 0000.0001) %MON ke_max                       =   3.4965518586737E-03
(PID.TID 0000.0001) %MON ke_mean                      =   3.7528404329131E-06
(PID.TID 0000.0001) %MON ke_vol                       =   4.6183351494142E+12
(PID.TID 0000.0001) // =======================================================
(PID.TID 0000.0001) // End MONITOR dynamic field statistics
(PID.TID 0000.0001) // =======================================================
(PID.TID 0000.0001) // =======================================================
(PID.TID 0000.0001) // Begin OBCS MONITOR field statistics
(PID.TID 0000.0001) // =======================================================
(PID.TID 0000.0001) %MON obc_N_vVel_max               =   1.3633526439549E-07
(PID.TID 0000.0001) %MON obc_N_vVel_min               =   1.3633526439549E-07
(PID.TID 0000.0001) %MON obc_N_vVel_mean              =   1.3633526439549E-07
(PID.TID 0000.0001) %MON obc_N_vVel_sd                =   8.1402896778042E-15
(PID.TID 0000.0001) %MON obc_N_vVel_Int               =   8.9981274501026E+00
(PID.TID 0000.0001) // =======================================================
(PID.TID 0000.0001) // End OBCS MONITOR field statistics
(PID.TID 0000.0001) // =======================================================
 cg2d: Sum(rhs),rhsMax =   3.00292038323589E+00  4.53034060152107E+02
(PID.TID 0000.0001)      cg2d_init_res =   7.85676088190453E-06
(PID.TID 0000.0001)      cg2d_iters(min,last) =      -1      80
(PID.TID 0000.0001)      cg2d_last_res =   9.27214379900468E-12
(PID.TID 0000.0001) // =======================================================
(PID.TID 0000.0001) // Begin MONITOR dynamic field statistics
(PID.TID 0000.0001) // =======================================================
(PID.TID 0000.0001) %MON time_tsnumber                =                  1661
(PID.TID 0000.0001) %MON time_secondsf                =   1.6610000000000E+05
(PID.TID 0000.0001) %MON dynstat_eta_max              =   5.8002687063755E+00
(PID.TID 0000.0001) %MON dynstat_eta_min              =  -1.4163429323650E+01
(PID.TID 0000.0001) %MON dynstat_eta_mean             =  -2.5193059509831E+00
(PID.TID 0000.0001) %MON dynstat_eta_sd               =   4.9397036334551E+00
(PID.TID 0000.0001) %MON dynstat_eta_del2             =   1.9060199634682E-01
(PID.TID 0000.0001) %MON dynstat_uvel_max             =   1.9137771348724E-02
(PID.TID 0000.0001) %MON dynstat_uvel_min             =  -8.5673930658512E-02
(PID.TID 0000.0001) %MON dynstat_uvel_mean            =   9.1843928183707E-09
(PID.TID 0000.0001) %MON dynstat_uvel_sd              =   2.5514915555687E-03
(PID.TID 0000.0001) %MON dynstat_uvel_del2            =   4.1115680244429E-06
(PID.TID 0000.0001) %MON dynstat_vvel_max             =   4.2705958476943E-02
(PID.TID 0000.0001) %MON dynstat_vvel_min             =  -2.8115323880975E-02
(PID.TID 0000.0001) %MON dynstat_vvel_mean            =   2.0620581152370E-07
(PID.TID 0000.0001) %MON dynstat_vvel_sd              =   1.0705143941547E-03
(PID.TID 0000.0001) %MON dynstat_vvel_del2            =   2.6713225639279E-06
(PID.TID 0000.0001) %MON dynstat_wvel_max             =   2.9438181725456E-03
(PID.TID 0000.0001) %MON dynstat_wvel_min             =  -3.1608533327086E-03
(PID.TID 0000.0001) %MON dynstat_wvel_mean            =   6.3717552818396E-10
(PID.TID 0000.0001) %MON dynstat_wvel_sd              =   5.0584506180081E-05
(PID.TID 0000.0001) %MON dynstat_wvel_del2            =   1.8104423573391E-07
(PID.TID 0000.0001) %MON dynstat_theta_max            =   1.2000000000000E+00
(PID.TID 0000.0001) %MON dynstat_theta_min            =  -1.0000000000000E+00
(PID.TID 0000.0001) %MON dynstat_theta_mean           =   5.6457065258268E-01
(PID.TID 0000.0001) %MON dynstat_theta_sd             =   8.4869310848773E-01
(PID.TID 0000.0001) %MON dynstat_theta_del2           =   7.3268628595857E-06
(PID.TID 0000.0001) %MON dynstat_salt_max             =   3.4700000000000E+01
(PID.TID 0000.0001) %MON dynstat_salt_min             =   3.4000000000000E+01
(PID.TID 0000.0001) %MON dynstat_salt_mean            =   3.4497742378414E+01
(PID.TID 0000.0001) %MON dynstat_salt_sd              =   2.7002039209226E-01
(PID.TID 0000.0001) %MON dynstat_salt_del2            =   2.9067057508191E-06
(PID.TID 0000.0001) %MON advcfl_uvel_max              =   8.5673930658512E-03
(PID.TID 0000.0001) %MON advcfl_vvel_max              =   4.2705958476943E-03
(PID.TID 0000.0001) %MON advcfl_wvel_max              =   1.5804266663543E-02
(PID.TID 0000.0001) %MON advcfl_W_hf_max              =   1.5804266663543E-02
(PID.TID 0000.0001) %MON pe_b_mean                    =  -6.8053022053719E-01
(PID.TID 0000.0001) %MON ke_max                       =   3.5083122268968E-03
(PID.TID 0000.0001) %MON ke_mean                      =   3.7668490351804E-06
(PID.TID 0000.0001) %MON ke_vol                       =   4.6183352359646E+12
(PID.TID 0000.0001) // =======================================================
(PID.TID 0000.0001) // End MONITOR dynamic field statistics
(PID.TID 0000.0001) // =======================================================
(PID.TID 0000.0001) // =======================================================
(PID.TID 0000.0001) // Begin OBCS MONITOR field statistics
(PID.TID 0000.0001) // =======================================================
(PID.TID 0000.0001) %MON obc_N_vVel_max               =   1.3543355180463E-07
(PID.TID 0000.0001) %MON obc_N_vVel_min               =   1.3543355180463E-07
(PID.TID 0000.0001) %MON obc_N_vVel_mean              =   1.3543355180463E-07
(PID.TID 0000.0001) %MON obc_N_vVel_sd                =   2.9988354939075E-14
(PID.TID 0000.0001) %MON obc_N_vVel_Int               =   8.9386144191057E+00
(PID.TID 0000.0001) // =======================================================
(PID.TID 0000.0001) // End OBCS MONITOR field statistics
(PID.TID 0000.0001) // =======================================================
 cg2d: Sum(rhs),rhsMax =   3.00290313636686E+00  4.53034033639505E+02
(PID.TID 0000.0001)      cg2d_init_res =   7.86718337978079E-06
(PID.TID 0000.0001)      cg2d_iters(min,last) =      -1      80
(PID.TID 0000.0001)      cg2d_last_res =   9.28733314838827E-12
(PID.TID 0000.0001) // =======================================================
(PID.TID 0000.0001) // Begin MONITOR dynamic field statistics
(PID.TID 0000.0001) // =======================================================
(PID.TID 0000.0001) %MON time_tsnumber                =                  1662
(PID.TID 0000.0001) %MON time_secondsf                =   1.6620000000000E+05
(PID.TID 0000.0001) %MON dynstat_eta_max              =   5.8002725678498E+00
(PID.TID 0000.0001) %MON dynstat_eta_min              =  -1.4163425588155E+01
(PID.TID 0000.0001) %MON dynstat_eta_mean             =  -2.5192913342537E+00
(PID.TID 0000.0001) %MON dynstat_eta_sd               =   4.9396993840809E+00
(PID.TID 0000.0001) %MON dynstat_eta_del2             =   1.9060203887512E-01
(PID.TID 0000.0001) %MON dynstat_uvel_max             =   1.9170612165986E-02
(PID.TID 0000.0001) %MON dynstat_uvel_min             =  -8.5817045141994E-02
(PID.TID 0000.0001) %MON dynstat_uvel_mean            =   9.2010766117621E-09
(PID.TID 0000.0001) %MON dynstat_uvel_sd              =   2.5562957091629E-03
(PID.TID 0000.0001) %MON dynstat_uvel_del2            =   4.1202051125423E-06
(PID.TID 0000.0001) %MON dynstat_vvel_max             =   4.2747501799262E-02
(PID.TID 0000.0001) %MON dynstat_vvel_min             =  -2.8179092985237E-02
(PID.TID 0000.0001) %MON dynstat_vvel_mean            =   2.0524184829702E-07
(PID.TID 0000.0001) %MON dynstat_vvel_sd              =   1.0723919245999E-03
(PID.TID 0000.0001) %MON dynstat_vvel_del2            =   2.6754163201389E-06
(PID.TID 0000.0001) %MON dynstat_wvel_max             =   2.9471610297730E-03
(PID.TID 0000.0001) %MON dynstat_wvel_min             =  -3.1598766975274E-03
(PID.TID 0000.0001) %MON dynstat_wvel_mean            =   6.3789130743178E-10
(PID.TID 0000.0001) %MON dynstat_wvel_sd              =   5.0650687482701E-05
(PID.TID 0000.0001) %MON dynstat_wvel_del2            =   1.8125808213096E-07
(PID.TID 0000.0001) %MON dynstat_theta_max            =   1.2000000000000E+00
(PID.TID 0000.0001) %MON dynstat_theta_min            =  -1.0000000000000E+00
(PID.TID 0000.0001) %MON dynstat_theta_mean           =   5.6456901645471E-01
(PID.TID 0000.0001) %MON dynstat_theta_sd             =   8.4869242664608E-01
(PID.TID 0000.0001) %MON dynstat_theta_del2           =   7.3377194852895E-06
(PID.TID 0000.0001) %MON dynstat_salt_max             =   3.4700000000000E+01
(PID.TID 0000.0001) %MON dynstat_salt_min             =   3.4000000000000E+01
(PID.TID 0000.0001) %MON dynstat_salt_mean            =   3.4497741723986E+01
(PID.TID 0000.0001) %MON dynstat_salt_sd              =   2.7002014120791E-01
(PID.TID 0000.0001) %MON dynstat_salt_del2            =   2.9110373342896E-06
(PID.TID 0000.0001) %MON advcfl_uvel_max              =   8.5817045141994E-03
(PID.TID 0000.0001) %MON advcfl_vvel_max              =   4.2747501799262E-03
(PID.TID 0000.0001) %MON advcfl_wvel_max              =   1.5799383487637E-02
(PID.TID 0000.0001) %MON advcfl_W_hf_max              =   1.5799383487637E-02
(PID.TID 0000.0001) %MON pe_b_mean                    =  -6.8052580604750E-01
(PID.TID 0000.0001) %MON ke_max                       =   3.5200900130818E-03
(PID.TID 0000.0001) %MON ke_mean                      =   3.7808993197598E-06
(PID.TID 0000.0001) %MON ke_vol                       =   4.6183353226512E+12
(PID.TID 0000.0001) // =======================================================
(PID.TID 0000.0001) // End MONITOR dynamic field statistics
(PID.TID 0000.0001) // =======================================================
(PID.TID 0000.0001) // =======================================================
(PID.TID 0000.0001) // Begin OBCS MONITOR field statistics
(PID.TID 0000.0001) // =======================================================
(PID.TID 0000.0001) %MON obc_N_vVel_max               =   1.3447176765613E-07
(PID.TID 0000.0001) %MON obc_N_vVel_min               =   1.3447176765613E-07
(PID.TID 0000.0001) %MON obc_N_vVel_mean              =   1.3447176765613E-07
(PID.TID 0000.0001) %MON obc_N_vVel_sd                =  -9.9080929695759E-28
(PID.TID 0000.0001) %MON obc_N_vVel_Int               =   8.8751366653045E+00
(PID.TID 0000.0001) // =======================================================
(PID.TID 0000.0001) // End OBCS MONITOR field statistics
(PID.TID 0000.0001) // =======================================================
 cg2d: Sum(rhs),rhsMax =   3.00288586229676E+00  4.53034007081661E+02
(PID.TID 0000.0001)      cg2d_init_res =   7.87760154314499E-06
(PID.TID 0000.0001)      cg2d_iters(min,last) =      -1      80
(PID.TID 0000.0001)      cg2d_last_res =   9.30256468765106E-12
(PID.TID 0000.0001) // =======================================================
(PID.TID 0000.0001) // Begin MONITOR dynamic field statistics
(PID.TID 0000.0001) // =======================================================
(PID.TID 0000.0001) %MON time_tsnumber                =                  1663
(PID.TID 0000.0001) %MON time_secondsf                =   1.6630000000000E+05
(PID.TID 0000.0001) %MON dynstat_eta_max              =   5.8002764287178E+00
(PID.TID 0000.0001) %MON dynstat_eta_min              =  -1.4163421846329E+01
(PID.TID 0000.0001) %MON dynstat_eta_mean             =  -2.5192766944540E+00
(PID.TID 0000.0001) %MON dynstat_eta_sd               =   4.9396951276621E+00
(PID.TID 0000.0001) %MON dynstat_eta_del2             =   1.9060208145234E-01
(PID.TID 0000.0001) %MON dynstat_uvel_max             =   1.9203459421626E-02
(PID.TID 0000.0001) %MON dynstat_uvel_min             =  -8.5960219770911E-02
(PID.TID 0000.0001) %MON dynstat_uvel_mean            =   9.2161532055258E-09
(PID.TID 0000.0001) %MON dynstat_uvel_sd              =   2.5611049458008E-03
(PID.TID 0000.0001) %MON dynstat_uvel_del2            =   4.1288555025108E-06
(PID.TID 0000.0001) %MON dynstat_vvel_max             =   4.2789028296454E-02
(PID.TID 0000.0001) %MON dynstat_vvel_min             =  -2.8242902603775E-02
(PID.TID 0000.0001) %MON dynstat_vvel_mean            =   2.0426997407627E-07
(PID.TID 0000.0001) %MON dynstat_vvel_sd              =   1.0742720558064E-03
(PID.TID 0000.0001) %MON dynstat_vvel_del2            =   2.6795141459222E-06
(PID.TID 0000.0001) %MON dynstat_wvel_max             =   2.9505004772081E-03
(PID.TID 0000.0001) %MON dynstat_wvel_min             =  -3.1588799187900E-03
(PID.TID 0000.0001) %MON dynstat_wvel_mean            =   6.3884759484279E-10
(PID.TID 0000.0001) %MON dynstat_wvel_sd              =   5.0716731090770E-05
(PID.TID 0000.0001) %MON dynstat_wvel_del2            =   1.8147185521230E-07
(PID.TID 0000.0001) %MON dynstat_theta_max            =   1.2000000000000E+00
(PID.TID 0000.0001) %MON dynstat_theta_min            =  -1.0000000000000E+00
(PID.TID 0000.0001) %MON dynstat_theta_mean           =   5.6456737790217E-01
(PID.TID 0000.0001) %MON dynstat_theta_sd             =   8.4869174404975E-01
(PID.TID 0000.0001) %MON dynstat_theta_del2           =   7.3485854002715E-06
(PID.TID 0000.0001) %MON dynstat_salt_max             =   3.4700000000000E+01
(PID.TID 0000.0001) %MON dynstat_salt_min             =   3.4000000000000E+01
(PID.TID 0000.0001) %MON dynstat_salt_mean            =   3.4497741068588E+01
(PID.TID 0000.0001) %MON dynstat_salt_sd              =   2.7001989008038E-01
(PID.TID 0000.0001) %MON dynstat_salt_del2            =   2.9153725997192E-06
(PID.TID 0000.0001) %MON advcfl_uvel_max              =   8.5960219770911E-03
(PID.TID 0000.0001) %MON advcfl_vvel_max              =   4.2789028296454E-03
(PID.TID 0000.0001) %MON advcfl_wvel_max              =   1.5794399593950E-02
(PID.TID 0000.0001) %MON advcfl_W_hf_max              =   1.5794399593950E-02
(PID.TID 0000.0001) %MON pe_b_mean                    =  -6.8052138470671E-01
(PID.TID 0000.0001) %MON ke_max                       =   3.5318851652995E-03
(PID.TID 0000.0001) %MON ke_mean                      =   3.7949913427135E-06
(PID.TID 0000.0001) %MON ke_vol                       =   4.6183354094745E+12
(PID.TID 0000.0001) // =======================================================
(PID.TID 0000.0001) // End MONITOR dynamic field statistics
(PID.TID 0000.0001) // =======================================================
(PID.TID 0000.0001) // =======================================================
(PID.TID 0000.0001) // Begin OBCS MONITOR field statistics
(PID.TID 0000.0001) // =======================================================
(PID.TID 0000.0001) %MON obc_N_vVel_max               =   1.3348126521168E-07
(PID.TID 0000.0001) %MON obc_N_vVel_min               =   1.3348126521168E-07
(PID.TID 0000.0001) %MON obc_N_vVel_mean              =   1.3348126521168E-07
(PID.TID 0000.0001) %MON obc_N_vVel_sd                =   9.7295071111810E-15
(PID.TID 0000.0001) %MON obc_N_vVel_Int               =   8.8097635039710E+00
(PID.TID 0000.0001) // =======================================================
(PID.TID 0000.0001) // End OBCS MONITOR field statistics
(PID.TID 0000.0001) // =======================================================
 cg2d: Sum(rhs),rhsMax =   3.00286856099548E+00  4.53033980481342E+02
(PID.TID 0000.0001)      cg2d_init_res =   7.88801258408056E-06
(PID.TID 0000.0001)      cg2d_iters(min,last) =      -1      80
(PID.TID 0000.0001)      cg2d_last_res =   9.31783473917425E-12
(PID.TID 0000.0001) // =======================================================
(PID.TID 0000.0001) // Begin MONITOR dynamic field statistics
(PID.TID 0000.0001) // =======================================================
(PID.TID 0000.0001) %MON time_tsnumber                =                  1664
(PID.TID 0000.0001) %MON time_secondsf                =   1.6640000000000E+05
(PID.TID 0000.0001) %MON dynstat_eta_max              =   5.8002802890599E+00
(PID.TID 0000.0001) %MON dynstat_eta_min              =  -1.4163418098127E+01
(PID.TID 0000.0001) %MON dynstat_eta_mean             =  -2.5192620315742E+00
(PID.TID 0000.0001) %MON dynstat_eta_sd               =   4.9396908642260E+00
(PID.TID 0000.0001) %MON dynstat_eta_del2             =   1.9060212407863E-01
(PID.TID 0000.0001) %MON dynstat_uvel_max             =   1.9236312880609E-02
(PID.TID 0000.0001) %MON dynstat_uvel_min             =  -8.6103453739437E-02
(PID.TID 0000.0001) %MON dynstat_uvel_mean            =   9.2296652945238E-09
(PID.TID 0000.0001) %MON dynstat_uvel_sd              =   2.5659192598469E-03
(PID.TID 0000.0001) %MON dynstat_uvel_del2            =   4.1375191913742E-06
(PID.TID 0000.0001) %MON dynstat_vvel_max             =   4.2830537870365E-02
(PID.TID 0000.0001) %MON dynstat_vvel_min             =  -2.8306752190637E-02
(PID.TID 0000.0001) %MON dynstat_vvel_mean            =   2.0332372630461E-07
(PID.TID 0000.0001) %MON dynstat_vvel_sd              =   1.0761547745360E-03
(PID.TID 0000.0001) %MON dynstat_vvel_del2            =   2.6836159813829E-06
(PID.TID 0000.0001) %MON dynstat_wvel_max             =   2.9538364988123E-03
(PID.TID 0000.0001) %MON dynstat_wvel_min             =  -3.1578632141849E-03
(PID.TID 0000.0001) %MON dynstat_wvel_mean            =   6.4003972560381E-10
(PID.TID 0000.0001) %MON dynstat_wvel_sd              =   5.0782573433641E-05
(PID.TID 0000.0001) %MON dynstat_wvel_del2            =   1.8168530978757E-07
(PID.TID 0000.0001) %MON dynstat_theta_max            =   1.2000000000000E+00
(PID.TID 0000.0001) %MON dynstat_theta_min            =  -1.0000000000000E+00
(PID.TID 0000.0001) %MON dynstat_theta_mean           =   5.6456573692451E-01
(PID.TID 0000.0001) %MON dynstat_theta_sd             =   8.4869106069935E-01
(PID.TID 0000.0001) %MON dynstat_theta_del2           =   7.3594606092536E-06
(PID.TID 0000.0001) %MON dynstat_salt_max             =   3.4700000000000E+01
(PID.TID 0000.0001) %MON dynstat_salt_min             =   3.4000000000000E+01
(PID.TID 0000.0001) %MON dynstat_salt_mean            =   3.4497740412217E+01
(PID.TID 0000.0001) %MON dynstat_salt_sd              =   2.7001963871020E-01
(PID.TID 0000.0001) %MON dynstat_salt_del2            =   2.9197115484135E-06
(PID.TID 0000.0001) %MON advcfl_uvel_max              =   8.6103453739437E-03
(PID.TID 0000.0001) %MON advcfl_vvel_max              =   4.2830537870365E-03
(PID.TID 0000.0001) %MON advcfl_wvel_max              =   1.5789316070925E-02
(PID.TID 0000.0001) %MON advcfl_W_hf_max              =   1.5789316070925E-02
(PID.TID 0000.0001) %MON pe_b_mean                    =  -6.8051695651838E-01
(PID.TID 0000.0001) %MON ke_max                       =   3.5436976326709E-03
(PID.TID 0000.0001) %MON ke_mean                      =   3.8091251622406E-06
(PID.TID 0000.0001) %MON ke_vol                       =   4.6183354964349E+12
(PID.TID 0000.0001) // =======================================================
(PID.TID 0000.0001) // End MONITOR dynamic field statistics
(PID.TID 0000.0001) // =======================================================
(PID.TID 0000.0001) // =======================================================
(PID.TID 0000.0001) // Begin OBCS MONITOR field statistics
(PID.TID 0000.0001) // =======================================================
(PID.TID 0000.0001) %MON obc_N_vVel_max               =   1.3249374662956E-07
(PID.TID 0000.0001) %MON obc_N_vVel_min               =   1.3249374662956E-07
(PID.TID 0000.0001) %MON obc_N_vVel_mean              =   1.3249374662956E-07
(PID.TID 0000.0001) %MON obc_N_vVel_sd                =   2.5184204728315E-14
(PID.TID 0000.0001) %MON obc_N_vVel_Int               =   8.7445872775509E+00
(PID.TID 0000.0001) // =======================================================
(PID.TID 0000.0001) // End OBCS MONITOR field statistics
(PID.TID 0000.0001) // =======================================================
 cg2d: Sum(rhs),rhsMax =   3.00285123247271E+00  4.53033953841511E+02
(PID.TID 0000.0001)      cg2d_init_res =   7.89841387722203E-06
(PID.TID 0000.0001)      cg2d_iters(min,last) =      -1      80
(PID.TID 0000.0001)      cg2d_last_res =   9.33314041852682E-12
(PID.TID 0000.0001) // =======================================================
(PID.TID 0000.0001) // Begin MONITOR dynamic field statistics
(PID.TID 0000.0001) // =======================================================
(PID.TID 0000.0001) %MON time_tsnumber                =                  1665
(PID.TID 0000.0001) %MON time_secondsf                =   1.6650000000000E+05
(PID.TID 0000.0001) %MON dynstat_eta_max              =   5.8002841489295E+00
(PID.TID 0000.0001) %MON dynstat_eta_min              =  -1.4163414343579E+01
(PID.TID 0000.0001) %MON dynstat_eta_mean             =  -2.5192473456388E+00
(PID.TID 0000.0001) %MON dynstat_eta_sd               =   4.9396865938098E+00
(PID.TID 0000.0001) %MON dynstat_eta_del2             =   1.9060216675412E-01
(PID.TID 0000.0001) %MON dynstat_uvel_max             =   1.9269172306692E-02
(PID.TID 0000.0001) %MON dynstat_uvel_min             =  -8.6246746235432E-02
(PID.TID 0000.0001) %MON dynstat_uvel_mean            =   9.2416832529189E-09
(PID.TID 0000.0001) %MON dynstat_uvel_sd              =   2.5707386456723E-03
(PID.TID 0000.0001) %MON dynstat_uvel_del2            =   4.1461961760513E-06
(PID.TID 0000.0001) %MON dynstat_vvel_max             =   4.2872030418025E-02
(PID.TID 0000.0001) %MON dynstat_vvel_min             =  -2.8370641197228E-02
(PID.TID 0000.0001) %MON dynstat_vvel_mean            =   2.0243569502987E-07
(PID.TID 0000.0001) %MON dynstat_vvel_sd              =   1.0780400704486E-03
(PID.TID 0000.0001) %MON dynstat_vvel_del2            =   2.6877217779188E-06
(PID.TID 0000.0001) %MON dynstat_wvel_max             =   2.9571690784048E-03
(PID.TID 0000.0001) %MON dynstat_wvel_min             =  -3.1568268022478E-03
(PID.TID 0000.0001) %MON dynstat_wvel_mean            =   6.4145751669054E-10
(PID.TID 0000.0001) %MON dynstat_wvel_sd              =   5.0848161993214E-05
(PID.TID 0000.0001) %MON dynstat_wvel_del2            =   1.8189823864694E-07
(PID.TID 0000.0001) %MON dynstat_theta_max            =   1.2000000000000E+00
(PID.TID 0000.0001) %MON dynstat_theta_min            =  -1.0000000000000E+00
(PID.TID 0000.0001) %MON dynstat_theta_mean           =   5.6456409352110E-01
(PID.TID 0000.0001) %MON dynstat_theta_sd             =   8.4869037659590E-01
(PID.TID 0000.0001) %MON dynstat_theta_del2           =   7.3703450986165E-06
(PID.TID 0000.0001) %MON dynstat_salt_max             =   3.4700000000000E+01
(PID.TID 0000.0001) %MON dynstat_salt_min             =   3.4000000000000E+01
(PID.TID 0000.0001) %MON dynstat_salt_mean            =   3.4497739754876E+01
(PID.TID 0000.0001) %MON dynstat_salt_sd              =   2.7001938709789E-01
(PID.TID 0000.0001) %MON dynstat_salt_del2            =   2.9240541762495E-06
(PID.TID 0000.0001) %MON advcfl_uvel_max              =   8.6246746235432E-03
(PID.TID 0000.0001) %MON advcfl_vvel_max              =   4.2872030418025E-03
(PID.TID 0000.0001) %MON advcfl_wvel_max              =   1.5784134011239E-02
(PID.TID 0000.0001) %MON advcfl_W_hf_max              =   1.5784134011239E-02
(PID.TID 0000.0001) %MON pe_b_mean                    =  -6.8051252149289E-01
(PID.TID 0000.0001) %MON ke_max                       =   3.5555273653685E-03
(PID.TID 0000.0001) %MON ke_mean                      =   3.8233008395711E-06
(PID.TID 0000.0001) %MON ke_vol                       =   4.6183355835324E+12
(PID.TID 0000.0001) // =======================================================
(PID.TID 0000.0001) // End MONITOR dynamic field statistics
(PID.TID 0000.0001) // =======================================================
(PID.TID 0000.0001) // =======================================================
(PID.TID 0000.0001) // Begin OBCS MONITOR field statistics
(PID.TID 0000.0001) // =======================================================
(PID.TID 0000.0001) %MON obc_N_vVel_max               =   1.3154052069506E-07
(PID.TID 0000.0001) %MON obc_N_vVel_min               =   1.3154052069506E-07
(PID.TID 0000.0001) %MON obc_N_vVel_mean              =   1.3154052069506E-07
(PID.TID 0000.0001) %MON obc_N_vVel_sd                =   1.2047838252594E-14
(PID.TID 0000.0001) %MON obc_N_vVel_Int               =   8.6816743658738E+00
(PID.TID 0000.0001) // =======================================================
(PID.TID 0000.0001) // End OBCS MONITOR field statistics
(PID.TID 0000.0001) // =======================================================
 cg2d: Sum(rhs),rhsMax =   3.00283387677752E+00  4.53033927165268E+02
(PID.TID 0000.0001)      cg2d_init_res =   7.90880375996614E-06
(PID.TID 0000.0001)      cg2d_iters(min,last) =      -1      80
(PID.TID 0000.0001)      cg2d_last_res =   9.34847624165063E-12
(PID.TID 0000.0001) // =======================================================
(PID.TID 0000.0001) // Begin MONITOR dynamic field statistics
(PID.TID 0000.0001) // =======================================================
(PID.TID 0000.0001) %MON time_tsnumber                =                  1666
(PID.TID 0000.0001) %MON time_secondsf                =   1.6660000000000E+05
(PID.TID 0000.0001) %MON dynstat_eta_max              =   5.8002880083311E+00
(PID.TID 0000.0001) %MON dynstat_eta_min              =  -1.4163410582749E+01
(PID.TID 0000.0001) %MON dynstat_eta_mean             =  -2.5192326367063E+00
(PID.TID 0000.0001) %MON dynstat_eta_sd               =   4.9396823164604E+00
(PID.TID 0000.0001) %MON dynstat_eta_del2             =   1.9060220947895E-01
(PID.TID 0000.0001) %MON dynstat_uvel_max             =   1.9302037462873E-02
(PID.TID 0000.0001) %MON dynstat_uvel_min             =  -8.6390096440613E-02
(PID.TID 0000.0001) %MON dynstat_uvel_mean            =   9.2523020097571E-09
(PID.TID 0000.0001) %MON dynstat_uvel_sd              =   2.5755630976499E-03
(PID.TID 0000.0001) %MON dynstat_uvel_del2            =   4.1548864533173E-06
(PID.TID 0000.0001) %MON dynstat_vvel_max             =   4.2913505832606E-02
(PID.TID 0000.0001) %MON dynstat_vvel_min             =  -2.8434569072211E-02
(PID.TID 0000.0001) %MON dynstat_vvel_mean            =   2.0163676071814E-07
(PID.TID 0000.0001) %MON dynstat_vvel_sd              =   1.0799279368061E-03
(PID.TID 0000.0001) %MON dynstat_vvel_del2            =   2.6918315009443E-06
(PID.TID 0000.0001) %MON dynstat_wvel_max             =   2.9604981997096E-03
(PID.TID 0000.0001) %MON dynstat_wvel_min             =  -3.1557709020587E-03
(PID.TID 0000.0001) %MON dynstat_wvel_mean            =   6.4308558990817E-10
(PID.TID 0000.0001) %MON dynstat_wvel_sd              =   5.0913457814604E-05
(PID.TID 0000.0001) %MON dynstat_wvel_del2            =   1.8211048247286E-07
(PID.TID 0000.0001) %MON dynstat_theta_max            =   1.2000000000000E+00
(PID.TID 0000.0001) %MON dynstat_theta_min            =  -1.0000000000000E+00
(PID.TID 0000.0001) %MON dynstat_theta_mean           =   5.6456244769120E-01
(PID.TID 0000.0001) %MON dynstat_theta_sd             =   8.4868969174120E-01
(PID.TID 0000.0001) %MON dynstat_theta_del2           =   7.3812388219474E-06
(PID.TID 0000.0001) %MON dynstat_salt_max             =   3.4700000000000E+01
(PID.TID 0000.0001) %MON dynstat_salt_min             =   3.4000000000000E+01
(PID.TID 0000.0001) %MON dynstat_salt_mean            =   3.4497739096561E+01
(PID.TID 0000.0001) %MON dynstat_salt_sd              =   2.7001913524423E-01
(PID.TID 0000.0001) %MON dynstat_salt_del2            =   2.9284004691807E-06
(PID.TID 0000.0001) %MON advcfl_uvel_max              =   8.6390096440613E-03
(PID.TID 0000.0001) %MON advcfl_vvel_max              =   4.2913505832606E-03
(PID.TID 0000.0001) %MON advcfl_wvel_max              =   1.5778854510294E-02
(PID.TID 0000.0001) %MON advcfl_W_hf_max              =   1.5778854510294E-02
(PID.TID 0000.0001) %MON pe_b_mean                    =  -6.8050807964712E-01
(PID.TID 0000.0001) %MON ke_max                       =   3.5673743146435E-03
(PID.TID 0000.0001) %MON ke_mean                      =   3.8375184397396E-06
(PID.TID 0000.0001) %MON ke_vol                       =   4.6183356707669E+12
(PID.TID 0000.0001) // =======================================================
(PID.TID 0000.0001) // End MONITOR dynamic field statistics
(PID.TID 0000.0001) // =======================================================
(PID.TID 0000.0001) // =======================================================
(PID.TID 0000.0001) // Begin OBCS MONITOR field statistics
(PID.TID 0000.0001) // =======================================================
(PID.TID 0000.0001) %MON obc_N_vVel_max               =   1.3065176222385E-07
(PID.TID 0000.0001) %MON obc_N_vVel_min               =   1.3065176222384E-07
(PID.TID 0000.0001) %MON obc_N_vVel_mean              =   1.3065176222384E-07
(PID.TID 0000.0001) %MON obc_N_vVel_sd                =   2.9511056222440E-14
(PID.TID 0000.0001) %MON obc_N_vVel_Int               =   8.6230163067738E+00
(PID.TID 0000.0001) // =======================================================
(PID.TID 0000.0001) // End OBCS MONITOR field statistics
(PID.TID 0000.0001) // =======================================================
 cg2d: Sum(rhs),rhsMax =   3.00281649399624E+00  4.53033900455764E+02
(PID.TID 0000.0001)      cg2d_init_res =   7.91918114946435E-06
(PID.TID 0000.0001)      cg2d_iters(min,last) =      -1      80
(PID.TID 0000.0001)      cg2d_last_res =   9.36383872503703E-12
(PID.TID 0000.0001) // =======================================================
(PID.TID 0000.0001) // Begin MONITOR dynamic field statistics
(PID.TID 0000.0001) // =======================================================
(PID.TID 0000.0001) %MON time_tsnumber                =                  1667
(PID.TID 0000.0001) %MON time_secondsf                =   1.6670000000000E+05
(PID.TID 0000.0001) %MON dynstat_eta_max              =   5.8002918672378E+00
(PID.TID 0000.0001) %MON dynstat_eta_min              =  -1.4163406815764E+01
(PID.TID 0000.0001) %MON dynstat_eta_mean             =  -2.5192179048667E+00
(PID.TID 0000.0001) %MON dynstat_eta_sd               =   4.9396780322330E+00
(PID.TID 0000.0001) %MON dynstat_eta_del2             =   1.9060225225326E-01
(PID.TID 0000.0001) %MON dynstat_uvel_max             =   1.9334908111432E-02
(PID.TID 0000.0001) %MON dynstat_uvel_min             =  -8.6533503530571E-02
(PID.TID 0000.0001) %MON dynstat_uvel_mean            =   9.2616348377464E-09
(PID.TID 0000.0001) %MON dynstat_uvel_sd              =   2.5803926101519E-03
(PID.TID 0000.0001) %MON dynstat_uvel_del2            =   4.1635900198379E-06
(PID.TID 0000.0001) %MON dynstat_vvel_max             =   4.2954964002810E-02
(PID.TID 0000.0001) %MON dynstat_vvel_min             =  -2.8498535261896E-02
(PID.TID 0000.0001) %MON dynstat_vvel_mean            =   2.0095538086752E-07
(PID.TID 0000.0001) %MON dynstat_vvel_sd              =   1.0818183709563E-03
(PID.TID 0000.0001) %MON dynstat_vvel_del2            =   2.6959451309841E-06
(PID.TID 0000.0001) %MON dynstat_wvel_max             =   2.9638238464937E-03
(PID.TID 0000.0001) %MON dynstat_wvel_min             =  -3.1546957330222E-03
(PID.TID 0000.0001) %MON dynstat_wvel_mean            =   6.4490388461762E-10
(PID.TID 0000.0001) %MON dynstat_wvel_sd              =   5.0978437276288E-05
(PID.TID 0000.0001) %MON dynstat_wvel_del2            =   1.8232193671185E-07
(PID.TID 0000.0001) %MON dynstat_theta_max            =   1.2000000000000E+00
(PID.TID 0000.0001) %MON dynstat_theta_min            =  -1.0000000000000E+00
(PID.TID 0000.0001) %MON dynstat_theta_mean           =   5.6456079943403E-01
(PID.TID 0000.0001) %MON dynstat_theta_sd             =   8.4868900613608E-01
(PID.TID 0000.0001) %MON dynstat_theta_del2           =   7.3921342595357E-06
(PID.TID 0000.0001) %MON dynstat_salt_max             =   3.4700000000000E+01
(PID.TID 0000.0001) %MON dynstat_salt_min             =   3.4000000000000E+01
(PID.TID 0000.0001) %MON dynstat_salt_mean            =   3.4497738437275E+01
(PID.TID 0000.0001) %MON dynstat_salt_sd              =   2.7001888314969E-01
(PID.TID 0000.0001) %MON dynstat_salt_del2            =   2.9327503920285E-06
(PID.TID 0000.0001) %MON advcfl_uvel_max              =   8.6533503530571E-03
(PID.TID 0000.0001) %MON advcfl_vvel_max              =   4.2954964002810E-03
(PID.TID 0000.0001) %MON advcfl_wvel_max              =   1.5773478665111E-02
(PID.TID 0000.0001) %MON advcfl_W_hf_max              =   1.5773478665111E-02
(PID.TID 0000.0001) %MON pe_b_mean                    =  -6.8050363100393E-01
(PID.TID 0000.0001) %MON ke_max                       =   3.5792384328244E-03
(PID.TID 0000.0001) %MON ke_mean                      =   3.8517780321371E-06
(PID.TID 0000.0001) %MON ke_vol                       =   4.6183357581380E+12
(PID.TID 0000.0001) // =======================================================
(PID.TID 0000.0001) // End MONITOR dynamic field statistics
(PID.TID 0000.0001) // =======================================================
(PID.TID 0000.0001) // =======================================================
(PID.TID 0000.0001) // Begin OBCS MONITOR field statistics
(PID.TID 0000.0001) // =======================================================
(PID.TID 0000.0001) %MON obc_N_vVel_max               =   1.2985581025680E-07
(PID.TID 0000.0001) %MON obc_N_vVel_min               =   1.2985581025679E-07
(PID.TID 0000.0001) %MON obc_N_vVel_mean              =   1.2985581025680E-07
(PID.TID 0000.0001) %MON obc_N_vVel_sd                =  -3.9758589623139E-28
(PID.TID 0000.0001) %MON obc_N_vVel_Int               =   8.5704834769485E+00
(PID.TID 0000.0001) // =======================================================
(PID.TID 0000.0001) // End OBCS MONITOR field statistics
(PID.TID 0000.0001) // =======================================================
 cg2d: Sum(rhs),rhsMax =   3.00279908424981E+00  4.53033873716093E+02
(PID.TID 0000.0001)      cg2d_init_res =   7.92964431111250E-06
(PID.TID 0000.0001)      cg2d_iters(min,last) =      -1      80
(PID.TID 0000.0001)      cg2d_last_res =   9.37931093157423E-12
(PID.TID 0000.0001) // =======================================================
(PID.TID 0000.0001) // Begin MONITOR dynamic field statistics
(PID.TID 0000.0001) // =======================================================
(PID.TID 0000.0001) %MON time_tsnumber                =                  1668
(PID.TID 0000.0001) %MON time_secondsf                =   1.6680000000000E+05
(PID.TID 0000.0001) %MON dynstat_eta_max              =   5.8002957255782E+00
(PID.TID 0000.0001) %MON dynstat_eta_min              =  -1.4163403042803E+01
(PID.TID 0000.0001) %MON dynstat_eta_mean             =  -2.5192031502386E+00
(PID.TID 0000.0001) %MON dynstat_eta_sd               =   4.9396737411922E+00
(PID.TID 0000.0001) %MON dynstat_eta_del2             =   1.9060229507750E-01
(PID.TID 0000.0001) %MON dynstat_uvel_max             =   1.9367784026685E-02
(PID.TID 0000.0001) %MON dynstat_uvel_min             =  -8.6676966676592E-02
(PID.TID 0000.0001) %MON dynstat_uvel_mean            =   9.2698089313939E-09
(PID.TID 0000.0001) %MON dynstat_uvel_sd              =   2.5852271775817E-03
(PID.TID 0000.0001) %MON dynstat_uvel_del2            =   4.1723068741715E-06
(PID.TID 0000.0001) %MON dynstat_vvel_max             =   4.2996404813249E-02
(PID.TID 0000.0001) %MON dynstat_vvel_min             =  -2.8562539209357E-02
(PID.TID 0000.0001) %MON dynstat_vvel_mean            =   2.0041693695158E-07
(PID.TID 0000.0001) %MON dynstat_vvel_sd              =   1.0837113743991E-03
(PID.TID 0000.0001) %MON dynstat_vvel_del2            =   2.7000626656914E-06
(PID.TID 0000.0001) %MON dynstat_wvel_max             =   2.9671460026026E-03
(PID.TID 0000.0001) %MON dynstat_wvel_min             =  -3.1536022444218E-03
(PID.TID 0000.0001) %MON dynstat_wvel_mean            =   6.4688764398185E-10
(PID.TID 0000.0001) %MON dynstat_wvel_sd              =   5.1043093474957E-05
(PID.TID 0000.0001) %MON dynstat_wvel_del2            =   1.8253255852252E-07
(PID.TID 0000.0001) %MON dynstat_theta_max            =   1.2000000000000E+00
(PID.TID 0000.0001) %MON dynstat_theta_min            =  -1.0000000000000E+00
(PID.TID 0000.0001) %MON dynstat_theta_mean           =   5.6455914874868E-01
(PID.TID 0000.0001) %MON dynstat_theta_sd             =   8.4868831978174E-01
(PID.TID 0000.0001) %MON dynstat_theta_del2           =   7.4030382809915E-06
(PID.TID 0000.0001) %MON dynstat_salt_max             =   3.4700000000000E+01
(PID.TID 0000.0001) %MON dynstat_salt_min             =   3.4000000000000E+01
(PID.TID 0000.0001) %MON dynstat_salt_mean            =   3.4497737777015E+01
(PID.TID 0000.0001) %MON dynstat_salt_sd              =   2.7001863081455E-01
(PID.TID 0000.0001) %MON dynstat_salt_del2            =   2.9371032391462E-06
(PID.TID 0000.0001) %MON advcfl_uvel_max              =   8.6676966676592E-03
(PID.TID 0000.0001) %MON advcfl_vvel_max              =   4.2996404813249E-03
(PID.TID 0000.0001) %MON advcfl_wvel_max              =   1.5768011222109E-02
(PID.TID 0000.0001) %MON advcfl_W_hf_max              =   1.5768011222109E-02
(PID.TID 0000.0001) %MON pe_b_mean                    =  -6.8049917559137E-01
(PID.TID 0000.0001) %MON ke_max                       =   3.5911196733310E-03
(PID.TID 0000.0001) %MON ke_mean                      =   3.8660796907006E-06
(PID.TID 0000.0001) %MON ke_vol                       =   4.6183358456451E+12
(PID.TID 0000.0001) // =======================================================
(PID.TID 0000.0001) // End MONITOR dynamic field statistics
(PID.TID 0000.0001) // =======================================================
(PID.TID 0000.0001) // =======================================================
(PID.TID 0000.0001) // Begin OBCS MONITOR field statistics
(PID.TID 0000.0001) // =======================================================
(PID.TID 0000.0001) %MON obc_N_vVel_max               =   1.2917853221904E-07
(PID.TID 0000.0001) %MON obc_N_vVel_min               =   1.2917853221904E-07
(PID.TID 0000.0001) %MON obc_N_vVel_mean              =   1.2917853221904E-07
(PID.TID 0000.0001) %MON obc_N_vVel_sd                =   3.7218809083152E-14
(PID.TID 0000.0001) %MON obc_N_vVel_Int               =   8.5257831264565E+00
(PID.TID 0000.0001) // =======================================================
(PID.TID 0000.0001) // End OBCS MONITOR field statistics
(PID.TID 0000.0001) // =======================================================
 cg2d: Sum(rhs),rhsMax =   3.00278164769025E+00  4.53033846949203E+02
(PID.TID 0000.0001)      cg2d_init_res =   7.93995749475127E-06
(PID.TID 0000.0001)      cg2d_iters(min,last) =      -1      80
(PID.TID 0000.0001)      cg2d_last_res =   9.39475651444325E-12
(PID.TID 0000.0001) // =======================================================
(PID.TID 0000.0001) // Begin MONITOR dynamic field statistics
(PID.TID 0000.0001) // =======================================================
(PID.TID 0000.0001) %MON time_tsnumber                =                  1669
(PID.TID 0000.0001) %MON time_secondsf                =   1.6690000000000E+05
(PID.TID 0000.0001) %MON dynstat_eta_max              =   5.8002995832606E+00
(PID.TID 0000.0001) %MON dynstat_eta_min              =  -1.4163399264073E+01
(PID.TID 0000.0001) %MON dynstat_eta_mean             =  -2.5191883729659E+00
(PID.TID 0000.0001) %MON dynstat_eta_sd               =   4.9396694433950E+00
(PID.TID 0000.0001) %MON dynstat_eta_del2             =   1.9060233795104E-01
(PID.TID 0000.0001) %MON dynstat_uvel_max             =   1.9400664958406E-02
(PID.TID 0000.0001) %MON dynstat_uvel_min             =  -8.6820485042704E-02
(PID.TID 0000.0001) %MON dynstat_uvel_mean            =   9.2769588098771E-09
(PID.TID 0000.0001) %MON dynstat_uvel_sd              =   2.5900667942510E-03
(PID.TID 0000.0001) %MON dynstat_uvel_del2            =   4.1810370125536E-06
(PID.TID 0000.0001) %MON dynstat_vvel_max             =   4.3037828144181E-02
(PID.TID 0000.0001) %MON dynstat_vvel_min             =  -2.8626580357461E-02
(PID.TID 0000.0001) %MON dynstat_vvel_mean            =   2.0004319973845E-07
(PID.TID 0000.0001) %MON dynstat_vvel_sd              =   1.0856069533440E-03
(PID.TID 0000.0001) %MON dynstat_vvel_del2            =   2.7041841183578E-06
(PID.TID 0000.0001) %MON dynstat_wvel_max             =   2.9704646520047E-03
(PID.TID 0000.0001) %MON dynstat_wvel_min             =  -3.1524906286945E-03
(PID.TID 0000.0001) %MON dynstat_wvel_mean            =   6.4900989745872E-10
(PID.TID 0000.0001) %MON dynstat_wvel_sd              =   5.1107435504418E-05
(PID.TID 0000.0001) %MON dynstat_wvel_del2            =   1.8274236147092E-07
(PID.TID 0000.0001) %MON dynstat_theta_max            =   1.2000000000000E+00
(PID.TID 0000.0001) %MON dynstat_theta_min            =  -1.0000000000000E+00
(PID.TID 0000.0001) %MON dynstat_theta_mean           =   5.6455749563413E-01
(PID.TID 0000.0001) %MON dynstat_theta_sd             =   8.4868763267894E-01
(PID.TID 0000.0001) %MON dynstat_theta_del2           =   7.4139497404019E-06
(PID.TID 0000.0001) %MON dynstat_salt_max             =   3.4700000000000E+01
(PID.TID 0000.0001) %MON dynstat_salt_min             =   3.4000000000000E+01
(PID.TID 0000.0001) %MON dynstat_salt_mean            =   3.4497737115782E+01
(PID.TID 0000.0001) %MON dynstat_salt_sd              =   2.7001837823979E-01
(PID.TID 0000.0001) %MON dynstat_salt_del2            =   2.9414597352791E-06
(PID.TID 0000.0001) %MON advcfl_uvel_max              =   8.6820485042704E-03
(PID.TID 0000.0001) %MON advcfl_vvel_max              =   4.3037828144181E-03
(PID.TID 0000.0001) %MON advcfl_wvel_max              =   1.5762453143473E-02
(PID.TID 0000.0001) %MON advcfl_W_hf_max              =   1.5762453143473E-02
(PID.TID 0000.0001) %MON pe_b_mean                    =  -6.8049471344191E-01
(PID.TID 0000.0001) %MON ke_max                       =   3.6030179908081E-03
(PID.TID 0000.0001) %MON ke_mean                      =   3.8804234942459E-06
(PID.TID 0000.0001) %MON ke_vol                       =   4.6183359332876E+12
(PID.TID 0000.0001) // =======================================================
(PID.TID 0000.0001) // End MONITOR dynamic field statistics
(PID.TID 0000.0001) // =======================================================
(PID.TID 0000.0001) // =======================================================
(PID.TID 0000.0001) // Begin OBCS MONITOR field statistics
(PID.TID 0000.0001) // =======================================================
(PID.TID 0000.0001) %MON obc_N_vVel_max               =   1.2864273012997E-07
(PID.TID 0000.0001) %MON obc_N_vVel_min               =   1.2864273012997E-07
(PID.TID 0000.0001) %MON obc_N_vVel_mean              =   1.2864273012997E-07
(PID.TID 0000.0001) %MON obc_N_vVel_sd                =  -9.7503207885317E-28
(PID.TID 0000.0001) %MON obc_N_vVel_Int               =   8.4904201885782E+00
(PID.TID 0000.0001) // =======================================================
(PID.TID 0000.0001) // End OBCS MONITOR field statistics
(PID.TID 0000.0001) // =======================================================
 cg2d: Sum(rhs),rhsMax =   3.00276418449614E+00  4.53033820157850E+02
(PID.TID 0000.0001)      cg2d_init_res =   7.95031012672180E-06
(PID.TID 0000.0001)      cg2d_iters(min,last) =      -1      80
(PID.TID 0000.0001)      cg2d_last_res =   9.41013358168852E-12
(PID.TID 0000.0001) // =======================================================
(PID.TID 0000.0001) // Begin MONITOR dynamic field statistics
(PID.TID 0000.0001) // =======================================================
(PID.TID 0000.0001) %MON time_tsnumber                =                  1670
(PID.TID 0000.0001) %MON time_secondsf                =   1.6700000000000E+05
(PID.TID 0000.0001) %MON dynstat_eta_max              =   5.8003034401954E+00
(PID.TID 0000.0001) %MON dynstat_eta_min              =  -1.4163395479819E+01
(PID.TID 0000.0001) %MON dynstat_eta_mean             =  -2.5191735732138E+00
(PID.TID 0000.0001) %MON dynstat_eta_sd               =   4.9396651389236E+00
(PID.TID 0000.0001) %MON dynstat_eta_del2             =   1.9060238087468E-01
(PID.TID 0000.0001) %MON dynstat_uvel_max             =   1.9433550665812E-02
(PID.TID 0000.0001) %MON dynstat_uvel_min             =  -8.6964057788126E-02
(PID.TID 0000.0001) %MON dynstat_uvel_mean            =   9.2832398586243E-09
(PID.TID 0000.0001) %MON dynstat_uvel_sd              =   2.5949114542958E-03
(PID.TID 0000.0001) %MON dynstat_uvel_del2            =   4.1897804300209E-06
(PID.TID 0000.0001) %MON dynstat_vvel_max             =   4.3079233871622E-02
(PID.TID 0000.0001) %MON dynstat_vvel_min             =  -2.8690658147440E-02
(PID.TID 0000.0001) %MON dynstat_vvel_mean            =   1.9985179398917E-07
(PID.TID 0000.0001) %MON dynstat_vvel_sd              =   1.0875051181709E-03
(PID.TID 0000.0001) %MON dynstat_vvel_del2            =   2.7083095200899E-06
(PID.TID 0000.0001) %MON dynstat_wvel_max             =   2.9737797787728E-03
(PID.TID 0000.0001) %MON dynstat_wvel_min             =  -3.1513611946541E-03
(PID.TID 0000.0001) %MON dynstat_wvel_mean            =   6.5123800617536E-10
(PID.TID 0000.0001) %MON dynstat_wvel_sd              =   5.1171488051285E-05
(PID.TID 0000.0001) %MON dynstat_wvel_del2            =   1.8295141449230E-07
(PID.TID 0000.0001) %MON dynstat_theta_max            =   1.2000000000000E+00
(PID.TID 0000.0001) %MON dynstat_theta_min            =  -1.0000000000000E+00
(PID.TID 0000.0001) %MON dynstat_theta_mean           =   5.6455584008922E-01
(PID.TID 0000.0001) %MON dynstat_theta_sd             =   8.4868694483018E-01
(PID.TID 0000.0001) %MON dynstat_theta_del2           =   7.4248707444480E-06
(PID.TID 0000.0001) %MON dynstat_salt_max             =   3.4700000000000E+01
(PID.TID 0000.0001) %MON dynstat_salt_min             =   3.4000000000000E+01
(PID.TID 0000.0001) %MON dynstat_salt_mean            =   3.4497736453575E+01
(PID.TID 0000.0001) %MON dynstat_salt_sd              =   2.7001812542622E-01
(PID.TID 0000.0001) %MON dynstat_salt_del2            =   2.9458200611998E-06
(PID.TID 0000.0001) %MON advcfl_uvel_max              =   8.6964057788126E-03
(PID.TID 0000.0001) %MON advcfl_vvel_max              =   4.3079233871622E-03
(PID.TID 0000.0001) %MON advcfl_wvel_max              =   1.5756805973271E-02
(PID.TID 0000.0001) %MON advcfl_W_hf_max              =   1.5756805973271E-02
(PID.TID 0000.0001) %MON pe_b_mean                    =  -6.8049024459149E-01
(PID.TID 0000.0001) %MON ke_max                       =   3.6149333408608E-03
(PID.TID 0000.0001) %MON ke_mean                      =   3.8948095257111E-06
(PID.TID 0000.0001) %MON ke_vol                       =   4.6183360210646E+12
(PID.TID 0000.0001) // =======================================================
(PID.TID 0000.0001) // End MONITOR dynamic field statistics
(PID.TID 0000.0001) // =======================================================
(PID.TID 0000.0001) // =======================================================
(PID.TID 0000.0001) // Begin OBCS MONITOR field statistics
(PID.TID 0000.0001) // =======================================================
(PID.TID 0000.0001) %MON obc_N_vVel_max               =   1.2826763701249E-07
(PID.TID 0000.0001) %MON obc_N_vVel_min               =   1.2826763701248E-07
(PID.TID 0000.0001) %MON obc_N_vVel_mean              =   1.2826763701248E-07
(PID.TID 0000.0001) %MON obc_N_vVel_sd                =   3.4076432508191E-14
(PID.TID 0000.0001) %MON obc_N_vVel_Int               =   8.4656640428239E+00
(PID.TID 0000.0001) // =======================================================
(PID.TID 0000.0001) // End OBCS MONITOR field statistics
(PID.TID 0000.0001) // =======================================================
 cg2d: Sum(rhs),rhsMax =   3.00274669486859E+00  4.53033793344498E+02
(PID.TID 0000.0001)      cg2d_init_res =   7.96065437332179E-06
(PID.TID 0000.0001)      cg2d_iters(min,last) =      -1      80
(PID.TID 0000.0001)      cg2d_last_res =   9.42551605403544E-12
(PID.TID 0000.0001) // =======================================================
(PID.TID 0000.0001) // Begin MONITOR dynamic field statistics
(PID.TID 0000.0001) // =======================================================
(PID.TID 0000.0001) %MON time_tsnumber                =                  1671
(PID.TID 0000.0001) %MON time_secondsf                =   1.6710000000000E+05
(PID.TID 0000.0001) %MON dynstat_eta_max              =   5.8003072962448E+00
(PID.TID 0000.0001) %MON dynstat_eta_min              =  -1.4163391690322E+01
(PID.TID 0000.0001) %MON dynstat_eta_mean             =  -2.5191587511648E+00
(PID.TID 0000.0001) %MON dynstat_eta_sd               =   4.9396608278458E+00
(PID.TID 0000.0001) %MON dynstat_eta_del2             =   1.9060242384860E-01
(PID.TID 0000.0001) %MON dynstat_uvel_max             =   1.9466440910922E-02
(PID.TID 0000.0001) %MON dynstat_uvel_min             =  -8.7107684065227E-02
(PID.TID 0000.0001) %MON dynstat_uvel_mean            =   9.2888233879405E-09
(PID.TID 0000.0001) %MON dynstat_uvel_sd              =   2.5997611520729E-03
(PID.TID 0000.0001) %MON dynstat_uvel_del2            =   4.1985371228727E-06
(PID.TID 0000.0001) %MON dynstat_vvel_max             =   4.3120621867227E-02
(PID.TID 0000.0001) %MON dynstat_vvel_min             =  -2.8754772016296E-02
(PID.TID 0000.0001) %MON dynstat_vvel_mean            =   1.9985587812782E-07
(PID.TID 0000.0001) %MON dynstat_vvel_sd              =   1.0894058830272E-03
(PID.TID 0000.0001) %MON dynstat_vvel_del2            =   2.7124389121784E-06
(PID.TID 0000.0001) %MON dynstat_wvel_max             =   2.9770913671441E-03
(PID.TID 0000.0001) %MON dynstat_wvel_min             =  -3.1502141619899E-03
(PID.TID 0000.0001) %MON dynstat_wvel_mean            =   6.5353953770437E-10
(PID.TID 0000.0001) %MON dynstat_wvel_sd              =   5.1235290140426E-05
(PID.TID 0000.0001) %MON dynstat_wvel_del2            =   1.8315983639523E-07
(PID.TID 0000.0001) %MON dynstat_theta_max            =   1.2000000000000E+00
(PID.TID 0000.0001) %MON dynstat_theta_min            =  -1.0000000000000E+00
(PID.TID 0000.0001) %MON dynstat_theta_mean           =   5.6455418211269E-01
(PID.TID 0000.0001) %MON dynstat_theta_sd             =   8.4868625623660E-01
(PID.TID 0000.0001) %MON dynstat_theta_del2           =   7.4358006471132E-06
(PID.TID 0000.0001) %MON dynstat_salt_max             =   3.4700000000000E+01
(PID.TID 0000.0001) %MON dynstat_salt_min             =   3.4000000000000E+01
(PID.TID 0000.0001) %MON dynstat_salt_mean            =   3.4497735790394E+01
(PID.TID 0000.0001) %MON dynstat_salt_sd              =   2.7001787237438E-01
(PID.TID 0000.0001) %MON dynstat_salt_del2            =   2.9501839808963E-06
(PID.TID 0000.0001) %MON advcfl_uvel_max              =   8.7107684065227E-03
(PID.TID 0000.0001) %MON advcfl_vvel_max              =   4.3120621867227E-03
(PID.TID 0000.0001) %MON advcfl_wvel_max              =   1.5751070809950E-02
(PID.TID 0000.0001) %MON advcfl_W_hf_max              =   1.5751070809950E-02
(PID.TID 0000.0001) %MON pe_b_mean                    =  -6.8048576907865E-01
(PID.TID 0000.0001) %MON ke_max                       =   3.6268656801605E-03
(PID.TID 0000.0001) %MON ke_mean                      =   3.9092378727623E-06
(PID.TID 0000.0001) %MON ke_vol                       =   4.6183361089751E+12
(PID.TID 0000.0001) // =======================================================
(PID.TID 0000.0001) // End MONITOR dynamic field statistics
(PID.TID 0000.0001) // =======================================================
(PID.TID 0000.0001) // =======================================================
(PID.TID 0000.0001) // Begin OBCS MONITOR field statistics
(PID.TID 0000.0001) // =======================================================
(PID.TID 0000.0001) %MON obc_N_vVel_max               =   1.2806850428050E-07
(PID.TID 0000.0001) %MON obc_N_vVel_min               =   1.2806850428050E-07
(PID.TID 0000.0001) %MON obc_N_vVel_mean              =   1.2806850428050E-07
(PID.TID 0000.0001) %MON obc_N_vVel_sd                =  -1.8049137511457E-27
(PID.TID 0000.0001) %MON obc_N_vVel_Int               =   8.4525212825133E+00
(PID.TID 0000.0001) // =======================================================
(PID.TID 0000.0001) // End OBCS MONITOR field statistics
(PID.TID 0000.0001) // =======================================================
 cg2d: Sum(rhs),rhsMax =   3.00272917902542E+00  4.53033766511267E+02
(PID.TID 0000.0001)      cg2d_init_res =   7.97097968707608E-06
(PID.TID 0000.0001)      cg2d_iters(min,last) =      -1      80
(PID.TID 0000.0001)      cg2d_last_res =   9.44093338027357E-12
(PID.TID 0000.0001) // =======================================================
(PID.TID 0000.0001) // Begin MONITOR dynamic field statistics
(PID.TID 0000.0001) // =======================================================
(PID.TID 0000.0001) %MON time_tsnumber                =                  1672
(PID.TID 0000.0001) %MON time_secondsf                =   1.6720000000000E+05
(PID.TID 0000.0001) %MON dynstat_eta_max              =   5.8003111512802E+00
(PID.TID 0000.0001) %MON dynstat_eta_min              =  -1.4163387895848E+01
(PID.TID 0000.0001) %MON dynstat_eta_mean             =  -2.5191439070133E+00
(PID.TID 0000.0001) %MON dynstat_eta_sd               =   4.9396565102312E+00
(PID.TID 0000.0001) %MON dynstat_eta_del2             =   1.9060246687262E-01
(PID.TID 0000.0001) %MON dynstat_uvel_max             =   1.9499335449435E-02
(PID.TID 0000.0001) %MON dynstat_uvel_min             =  -8.7251363021903E-02
(PID.TID 0000.0001) %MON dynstat_uvel_mean            =   9.2938884365952E-09
(PID.TID 0000.0001) %MON dynstat_uvel_sd              =   2.6046158818455E-03
(PID.TID 0000.0001) %MON dynstat_uvel_del2            =   4.2073070861608E-06
(PID.TID 0000.0001) %MON dynstat_vvel_max             =   4.3161991998411E-02
(PID.TID 0000.0001) %MON dynstat_vvel_min             =  -2.8818921398873E-02
(PID.TID 0000.0001) %MON dynstat_vvel_mean            =   2.0006386595477E-07
(PID.TID 0000.0001) %MON dynstat_vvel_sd              =   1.0913092655307E-03
(PID.TID 0000.0001) %MON dynstat_vvel_del2            =   2.7165723467302E-06
(PID.TID 0000.0001) %MON dynstat_wvel_max             =   2.9803994014663E-03
(PID.TID 0000.0001) %MON dynstat_wvel_min             =  -3.1490497512257E-03
(PID.TID 0000.0001) %MON dynstat_wvel_mean            =   6.5587965772536E-10
(PID.TID 0000.0001) %MON dynstat_wvel_sd              =   5.1298892903098E-05
(PID.TID 0000.0001) %MON dynstat_wvel_del2            =   1.8336779015599E-07
(PID.TID 0000.0001) %MON dynstat_theta_max            =   1.2000000000000E+00
(PID.TID 0000.0001) %MON dynstat_theta_min            =  -1.0000000000000E+00
(PID.TID 0000.0001) %MON dynstat_theta_mean           =   5.6455252170316E-01
(PID.TID 0000.0001) %MON dynstat_theta_sd             =   8.4868556689984E-01
(PID.TID 0000.0001) %MON dynstat_theta_del2           =   7.4467392832351E-06
(PID.TID 0000.0001) %MON dynstat_salt_max             =   3.4700000000000E+01
(PID.TID 0000.0001) %MON dynstat_salt_min             =   3.4000000000000E+01
(PID.TID 0000.0001) %MON dynstat_salt_mean            =   3.4497735126237E+01
(PID.TID 0000.0001) %MON dynstat_salt_sd              =   2.7001761908483E-01
(PID.TID 0000.0001) %MON dynstat_salt_del2            =   2.9545514505437E-06
(PID.TID 0000.0001) %MON advcfl_uvel_max              =   8.7251363021902E-03
(PID.TID 0000.0001) %MON advcfl_vvel_max              =   4.3161991998411E-03
(PID.TID 0000.0001) %MON advcfl_wvel_max              =   1.5745248756129E-02
(PID.TID 0000.0001) %MON advcfl_W_hf_max              =   1.5745248756129E-02
(PID.TID 0000.0001) %MON pe_b_mean                    =  -6.8048128694342E-01
(PID.TID 0000.0001) %MON ke_max                       =   3.6388149666272E-03
(PID.TID 0000.0001) %MON ke_mean                      =   3.9237086267088E-06
(PID.TID 0000.0001) %MON ke_vol                       =   4.6183361970181E+12
(PID.TID 0000.0001) // =======================================================
(PID.TID 0000.0001) // End MONITOR dynamic field statistics
(PID.TID 0000.0001) // =======================================================
(PID.TID 0000.0001) // =======================================================
(PID.TID 0000.0001) // Begin OBCS MONITOR field statistics
(PID.TID 0000.0001) // =======================================================
(PID.TID 0000.0001) %MON obc_N_vVel_max               =   1.2805628574360E-07
(PID.TID 0000.0001) %MON obc_N_vVel_min               =   1.2805628574360E-07
(PID.TID 0000.0001) %MON obc_N_vVel_mean              =   1.2805628574360E-07
(PID.TID 0000.0001) %MON obc_N_vVel_sd                =   2.0715702557245E-14
(PID.TID 0000.0001) %MON obc_N_vVel_Int               =   8.4517148590776E+00
(PID.TID 0000.0001) // =======================================================
(PID.TID 0000.0001) // End OBCS MONITOR field statistics
(PID.TID 0000.0001) // =======================================================
 cg2d: Sum(rhs),rhsMax =   3.00271163719578E+00  4.53033739659867E+02
(PID.TID 0000.0001)      cg2d_init_res =   7.98130062839832E-06
(PID.TID 0000.0001)      cg2d_iters(min,last) =      -1      80
(PID.TID 0000.0001)      cg2d_last_res =   9.45634917057825E-12
(PID.TID 0000.0001) // =======================================================
(PID.TID 0000.0001) // Begin MONITOR dynamic field statistics
(PID.TID 0000.0001) // =======================================================
(PID.TID 0000.0001) %MON time_tsnumber                =                  1673
(PID.TID 0000.0001) %MON time_secondsf                =   1.6730000000000E+05
(PID.TID 0000.0001) %MON dynstat_eta_max              =   5.8003150051838E+00
(PID.TID 0000.0001) %MON dynstat_eta_min              =  -1.4163384096707E+01
(PID.TID 0000.0001) %MON dynstat_eta_mean             =  -2.5191290409611E+00
(PID.TID 0000.0001) %MON dynstat_eta_sd               =   4.9396521861495E+00
(PID.TID 0000.0001) %MON dynstat_eta_del2             =   1.9060250994683E-01
(PID.TID 0000.0001) %MON dynstat_uvel_max             =   1.9532234037094E-02
(PID.TID 0000.0001) %MON dynstat_uvel_min             =  -8.7395093800932E-02
(PID.TID 0000.0001) %MON dynstat_uvel_mean            =   9.2986301396011E-09
(PID.TID 0000.0001) %MON dynstat_uvel_sd              =   2.6094756378567E-03
(PID.TID 0000.0001) %MON dynstat_uvel_del2            =   4.2160903149195E-06
(PID.TID 0000.0001) %MON dynstat_vvel_max             =   4.3203344128163E-02
(PID.TID 0000.0001) %MON dynstat_vvel_min             =  -2.8883105727388E-02
(PID.TID 0000.0001) %MON dynstat_vvel_mean            =   2.0047928378788E-07
(PID.TID 0000.0001) %MON dynstat_vvel_sd              =   1.0932152859275E-03
(PID.TID 0000.0001) %MON dynstat_vvel_del2            =   2.7207098839184E-06
(PID.TID 0000.0001) %MON dynstat_wvel_max             =   2.9837038662354E-03
(PID.TID 0000.0001) %MON dynstat_wvel_min             =  -3.1478681827726E-03
(PID.TID 0000.0001) %MON dynstat_wvel_mean            =   6.5822306079296E-10
(PID.TID 0000.0001) %MON dynstat_wvel_sd              =   5.1362356812021E-05
(PID.TID 0000.0001) %MON dynstat_wvel_del2            =   1.8357547142573E-07
(PID.TID 0000.0001) %MON dynstat_theta_max            =   1.2000000000000E+00
(PID.TID 0000.0001) %MON dynstat_theta_min            =  -1.0000000000000E+00
(PID.TID 0000.0001) %MON dynstat_theta_mean           =   5.6455085885913E-01
(PID.TID 0000.0001) %MON dynstat_theta_sd             =   8.4868487682071E-01
(PID.TID 0000.0001) %MON dynstat_theta_del2           =   7.4576864679877E-06
(PID.TID 0000.0001) %MON dynstat_salt_max             =   3.4700000000000E+01
(PID.TID 0000.0001) %MON dynstat_salt_min             =   3.4000000000000E+01
(PID.TID 0000.0001) %MON dynstat_salt_mean            =   3.4497734461105E+01
(PID.TID 0000.0001) %MON dynstat_salt_sd              =   2.7001736555814E-01
(PID.TID 0000.0001) %MON dynstat_salt_del2            =   2.9589224239943E-06
(PID.TID 0000.0001) %MON advcfl_uvel_max              =   8.7395093800932E-03
(PID.TID 0000.0001) %MON advcfl_vvel_max              =   4.3203344128163E-03
(PID.TID 0000.0001) %MON advcfl_wvel_max              =   1.5739340913863E-02
(PID.TID 0000.0001) %MON advcfl_W_hf_max              =   1.5739340913863E-02
(PID.TID 0000.0001) %MON pe_b_mean                    =  -6.8047679822633E-01
(PID.TID 0000.0001) %MON ke_max                       =   3.6507811594059E-03
(PID.TID 0000.0001) %MON ke_mean                      =   3.9382218818001E-06
(PID.TID 0000.0001) %MON ke_vol                       =   4.6183362851923E+12
(PID.TID 0000.0001) // =======================================================
(PID.TID 0000.0001) // End MONITOR dynamic field statistics
(PID.TID 0000.0001) // =======================================================
(PID.TID 0000.0001) // =======================================================
(PID.TID 0000.0001) // Begin OBCS MONITOR field statistics
(PID.TID 0000.0001) // =======================================================
(PID.TID 0000.0001) %MON obc_N_vVel_max               =   1.2823742130435E-07
(PID.TID 0000.0001) %MON obc_N_vVel_min               =   1.2823742130435E-07
(PID.TID 0000.0001) %MON obc_N_vVel_mean              =   1.2823742130435E-07
(PID.TID 0000.0001) %MON obc_N_vVel_sd                =   1.6280579355608E-14
(PID.TID 0000.0001) %MON obc_N_vVel_Int               =   8.4636698060868E+00
(PID.TID 0000.0001) // =======================================================
(PID.TID 0000.0001) // End OBCS MONITOR field statistics
(PID.TID 0000.0001) // =======================================================
 cg2d: Sum(rhs),rhsMax =   3.00269406961409E+00  4.53033712791582E+02
(PID.TID 0000.0001)      cg2d_init_res =   7.99161997490380E-06
(PID.TID 0000.0001)      cg2d_iters(min,last) =      -1      80
(PID.TID 0000.0001)      cg2d_last_res =   9.47175986591980E-12
(PID.TID 0000.0001) // =======================================================
(PID.TID 0000.0001) // Begin MONITOR dynamic field statistics
(PID.TID 0000.0001) // =======================================================
(PID.TID 0000.0001) %MON time_tsnumber                =                  1674
(PID.TID 0000.0001) %MON time_secondsf                =   1.6740000000000E+05
(PID.TID 0000.0001) %MON dynstat_eta_max              =   5.8003188578457E+00
(PID.TID 0000.0001) %MON dynstat_eta_min              =  -1.4163380293180E+01
(PID.TID 0000.0001) %MON dynstat_eta_mean             =  -2.5191141532121E+00
(PID.TID 0000.0001) %MON dynstat_eta_sd               =   4.9396478556659E+00
(PID.TID 0000.0001) %MON dynstat_eta_del2             =   1.9060255307127E-01
(PID.TID 0000.0001) %MON dynstat_uvel_max             =   1.9565136429865E-02
(PID.TID 0000.0001) %MON dynstat_uvel_min             =  -8.7538875540037E-02
(PID.TID 0000.0001) %MON dynstat_uvel_mean            =   9.3032568642494E-09
(PID.TID 0000.0001) %MON dynstat_uvel_sd              =   2.6143404143227E-03
(PID.TID 0000.0001) %MON dynstat_uvel_del2            =   4.2248868039692E-06
(PID.TID 0000.0001) %MON dynstat_vvel_max             =   4.3244678115271E-02
(PID.TID 0000.0001) %MON dynstat_vvel_min             =  -2.8947324432149E-02
(PID.TID 0000.0001) %MON dynstat_vvel_mean            =   2.0110075015546E-07
(PID.TID 0000.0001) %MON dynstat_vvel_sd              =   1.0951239662757E-03
(PID.TID 0000.0001) %MON dynstat_vvel_del2            =   2.7248515888516E-06
(PID.TID 0000.0001) %MON dynstat_wvel_max             =   2.9870047460711E-03
(PID.TID 0000.0001) %MON dynstat_wvel_min             =  -3.1466696771229E-03
(PID.TID 0000.0001) %MON dynstat_wvel_mean            =   6.6053470051317E-10
(PID.TID 0000.0001) %MON dynstat_wvel_sd              =   5.1425748607711E-05
(PID.TID 0000.0001) %MON dynstat_wvel_del2            =   1.8378309863992E-07
(PID.TID 0000.0001) %MON dynstat_theta_max            =   1.2000000000000E+00
(PID.TID 0000.0001) %MON dynstat_theta_min            =  -1.0000000000000E+00
(PID.TID 0000.0001) %MON dynstat_theta_mean           =   5.6454919357896E-01
(PID.TID 0000.0001) %MON dynstat_theta_sd             =   8.4868418600046E-01
(PID.TID 0000.0001) %MON dynstat_theta_del2           =   7.4686420229499E-06
(PID.TID 0000.0001) %MON dynstat_salt_max             =   3.4700000000000E+01
(PID.TID 0000.0001) %MON dynstat_salt_min             =   3.4000000000000E+01
(PID.TID 0000.0001) %MON dynstat_salt_mean            =   3.4497733794997E+01
(PID.TID 0000.0001) %MON dynstat_salt_sd              =   2.7001711179495E-01
(PID.TID 0000.0001) %MON dynstat_salt_del2            =   2.9632968542081E-06
(PID.TID 0000.0001) %MON advcfl_uvel_max              =   8.7538875540037E-03
(PID.TID 0000.0001) %MON advcfl_vvel_max              =   4.3244678115271E-03
(PID.TID 0000.0001) %MON advcfl_wvel_max              =   1.5733348385614E-02
(PID.TID 0000.0001) %MON advcfl_W_hf_max              =   1.5733348385614E-02
(PID.TID 0000.0001) %MON pe_b_mean                    =  -6.8047230296731E-01
(PID.TID 0000.0001) %MON ke_max                       =   3.6627642187746E-03
(PID.TID 0000.0001) %MON ke_mean                      =   3.9527777343395E-06
(PID.TID 0000.0001) %MON ke_vol                       =   4.6183363734967E+12
(PID.TID 0000.0001) // =======================================================
(PID.TID 0000.0001) // End MONITOR dynamic field statistics
(PID.TID 0000.0001) // =======================================================
(PID.TID 0000.0001) // =======================================================
(PID.TID 0000.0001) // Begin OBCS MONITOR field statistics
(PID.TID 0000.0001) // =======================================================
(PID.TID 0000.0001) %MON obc_N_vVel_max               =   1.2861375677775E-07
(PID.TID 0000.0001) %MON obc_N_vVel_min               =   1.2861375677775E-07
(PID.TID 0000.0001) %MON obc_N_vVel_mean              =   1.2861375677775E-07
(PID.TID 0000.0001) %MON obc_N_vVel_sd                =   1.5072887603364E-14
(PID.TID 0000.0001) %MON obc_N_vVel_Int               =   8.4885079473316E+00
(PID.TID 0000.0001) // =======================================================
(PID.TID 0000.0001) // End OBCS MONITOR field statistics
(PID.TID 0000.0001) // =======================================================
 cg2d: Sum(rhs),rhsMax =   3.00267647651437E+00  4.53033685907205E+02
(PID.TID 0000.0001)      cg2d_init_res =   8.00194093774987E-06
(PID.TID 0000.0001)      cg2d_iters(min,last) =      -1      80
(PID.TID 0000.0001)      cg2d_last_res =   9.48716229406441E-12
(PID.TID 0000.0001) // =======================================================
(PID.TID 0000.0001) // Begin MONITOR dynamic field statistics
(PID.TID 0000.0001) // =======================================================
(PID.TID 0000.0001) %MON time_tsnumber                =                  1675
(PID.TID 0000.0001) %MON time_secondsf                =   1.6750000000000E+05
(PID.TID 0000.0001) %MON dynstat_eta_max              =   5.8003227091611E+00
(PID.TID 0000.0001) %MON dynstat_eta_min              =  -1.4163376485546E+01
(PID.TID 0000.0001) %MON dynstat_eta_mean             =  -2.5190992439670E+00
(PID.TID 0000.0001) %MON dynstat_eta_sd               =   4.9396435188409E+00
(PID.TID 0000.0001) %MON dynstat_eta_del2             =   1.9060259624598E-01
(PID.TID 0000.0001) %MON dynstat_uvel_max             =   1.9598042383731E-02
(PID.TID 0000.0001) %MON dynstat_uvel_min             =  -8.7682707372259E-02
(PID.TID 0000.0001) %MON dynstat_uvel_mean            =   9.3079862290059E-09
(PID.TID 0000.0001) %MON dynstat_uvel_sd              =   2.6192102054303E-03
(PID.TID 0000.0001) %MON dynstat_uvel_del2            =   4.2336965479538E-06
(PID.TID 0000.0001) %MON dynstat_vvel_max             =   4.3285993814282E-02
(PID.TID 0000.0001) %MON dynstat_vvel_min             =  -2.9011576941119E-02
(PID.TID 0000.0001) %MON dynstat_vvel_mean            =   2.0192206970002E-07
(PID.TID 0000.0001) %MON dynstat_vvel_sd              =   1.0970353295488E-03
(PID.TID 0000.0001) %MON dynstat_vvel_del2            =   2.7289975281859E-06
(PID.TID 0000.0001) %MON dynstat_wvel_max             =   2.9903020257092E-03
(PID.TID 0000.0001) %MON dynstat_wvel_min             =  -3.1454544547329E-03
(PID.TID 0000.0001) %MON dynstat_wvel_mean            =   6.6278085734127E-10
(PID.TID 0000.0001) %MON dynstat_wvel_sd              =   5.1489137929096E-05
(PID.TID 0000.0001) %MON dynstat_wvel_del2            =   1.8399090139280E-07
(PID.TID 0000.0001) %MON dynstat_theta_max            =   1.2000000000000E+00
(PID.TID 0000.0001) %MON dynstat_theta_min            =  -1.0000000000000E+00
(PID.TID 0000.0001) %MON dynstat_theta_mean           =   5.6454752586089E-01
(PID.TID 0000.0001) %MON dynstat_theta_sd             =   8.4868349443998E-01
(PID.TID 0000.0001) %MON dynstat_theta_del2           =   7.4796057702738E-06
(PID.TID 0000.0001) %MON dynstat_salt_max             =   3.4700000000000E+01
(PID.TID 0000.0001) %MON dynstat_salt_min             =   3.4000000000000E+01
(PID.TID 0000.0001) %MON dynstat_salt_mean            =   3.4497733127912E+01
(PID.TID 0000.0001) %MON dynstat_salt_sd              =   2.7001685779576E-01
(PID.TID 0000.0001) %MON dynstat_salt_del2            =   2.9676746945273E-06
(PID.TID 0000.0001) %MON advcfl_uvel_max              =   8.7682707372259E-03
(PID.TID 0000.0001) %MON advcfl_vvel_max              =   4.3285993814282E-03
(PID.TID 0000.0001) %MON advcfl_wvel_max              =   1.5727272273664E-02
(PID.TID 0000.0001) %MON advcfl_W_hf_max              =   1.5727272273664E-02
(PID.TID 0000.0001) %MON pe_b_mean                    =  -6.8046780120470E-01
(PID.TID 0000.0001) %MON ke_max                       =   3.6747641061550E-03
(PID.TID 0000.0001) %MON ke_mean                      =   3.9673762817121E-06
(PID.TID 0000.0001) %MON ke_vol                       =   4.6183364619299E+12
(PID.TID 0000.0001) // =======================================================
(PID.TID 0000.0001) // End MONITOR dynamic field statistics
(PID.TID 0000.0001) // =======================================================
(PID.TID 0000.0001) // =======================================================
(PID.TID 0000.0001) // Begin OBCS MONITOR field statistics
(PID.TID 0000.0001) // =======================================================
(PID.TID 0000.0001) %MON obc_N_vVel_max               =   1.2918252906335E-07
(PID.TID 0000.0001) %MON obc_N_vVel_min               =   1.2918252906335E-07
(PID.TID 0000.0001) %MON obc_N_vVel_mean              =   1.2918252906335E-07
(PID.TID 0000.0001) %MON obc_N_vVel_sd                =  -2.2403649708277E-28
(PID.TID 0000.0001) %MON obc_N_vVel_Int               =   8.5260469181810E+00
(PID.TID 0000.0001) // =======================================================
(PID.TID 0000.0001) // End OBCS MONITOR field statistics
(PID.TID 0000.0001) // =======================================================
 cg2d: Sum(rhs),rhsMax =   3.00265885812396E+00  4.53033659007069E+02
(PID.TID 0000.0001)      cg2d_init_res =   8.01226645763273E-06
(PID.TID 0000.0001)      cg2d_iters(min,last) =      -1      80
(PID.TID 0000.0001)      cg2d_last_res =   9.50254653836478E-12
(PID.TID 0000.0001) // =======================================================
(PID.TID 0000.0001) // Begin MONITOR dynamic field statistics
(PID.TID 0000.0001) // =======================================================
(PID.TID 0000.0001) %MON time_tsnumber                =                  1676
(PID.TID 0000.0001) %MON time_secondsf                =   1.6760000000000E+05
(PID.TID 0000.0001) %MON dynstat_eta_max              =   5.8003265590639E+00
(PID.TID 0000.0001) %MON dynstat_eta_min              =  -1.4163372674072E+01
(PID.TID 0000.0001) %MON dynstat_eta_mean             =  -2.5190843134183E+00
(PID.TID 0000.0001) %MON dynstat_eta_sd               =   4.9396391757265E+00
(PID.TID 0000.0001) %MON dynstat_eta_del2             =   1.9060263947092E-01
(PID.TID 0000.0001) %MON dynstat_uvel_max             =   1.9630951656403E-02
(PID.TID 0000.0001) %MON dynstat_uvel_min             =  -8.7826588426456E-02
(PID.TID 0000.0001) %MON dynstat_uvel_mean            =   9.3130366401705E-09
(PID.TID 0000.0001) %MON dynstat_uvel_sd              =   2.6240850053439E-03
(PID.TID 0000.0001) %MON dynstat_uvel_del2            =   4.2425195418484E-06
(PID.TID 0000.0001) %MON dynstat_vvel_max             =   4.3327291075762E-02
(PID.TID 0000.0001) %MON dynstat_vvel_min             =  -2.9075862680145E-02
(PID.TID 0000.0001) %MON dynstat_vvel_mean            =   2.0293244587640E-07
(PID.TID 0000.0001) %MON dynstat_vvel_sd              =   1.0989493987701E-03
(PID.TID 0000.0001) %MON dynstat_vvel_del2            =   2.7331477670672E-06
(PID.TID 0000.0001) %MON dynstat_wvel_max             =   2.9935956900422E-03
(PID.TID 0000.0001) %MON dynstat_wvel_min             =  -3.1442227360769E-03
(PID.TID 0000.0001) %MON dynstat_wvel_mean            =   6.6492980613662E-10
(PID.TID 0000.0001) %MON dynstat_wvel_sd              =   5.1552593880453E-05
(PID.TID 0000.0001) %MON dynstat_wvel_del2            =   1.8419910915958E-07
(PID.TID 0000.0001) %MON dynstat_theta_max            =   1.2000000000000E+00
(PID.TID 0000.0001) %MON dynstat_theta_min            =  -1.0000000000000E+00
(PID.TID 0000.0001) %MON dynstat_theta_mean           =   5.6454585570300E-01
(PID.TID 0000.0001) %MON dynstat_theta_sd             =   8.4868280213978E-01
(PID.TID 0000.0001) %MON dynstat_theta_del2           =   7.4905775464921E-06
(PID.TID 0000.0001) %MON dynstat_salt_max             =   3.4700000000000E+01
(PID.TID 0000.0001) %MON dynstat_salt_min             =   3.4000000000000E+01
(PID.TID 0000.0001) %MON dynstat_salt_mean            =   3.4497732459850E+01
(PID.TID 0000.0001) %MON dynstat_salt_sd              =   2.7001660356079E-01
(PID.TID 0000.0001) %MON dynstat_salt_del2            =   2.9720559058240E-06
(PID.TID 0000.0001) %MON advcfl_uvel_max              =   8.7826588426456E-03
(PID.TID 0000.0001) %MON advcfl_vvel_max              =   4.3327291075762E-03
(PID.TID 0000.0001) %MON advcfl_wvel_max              =   1.5721113680384E-02
(PID.TID 0000.0001) %MON advcfl_W_hf_max              =   1.5721113680384E-02
(PID.TID 0000.0001) %MON pe_b_mean                    =  -6.8046329297422E-01
(PID.TID 0000.0001) %MON ke_max                       =   3.6867807841709E-03
(PID.TID 0000.0001) %MON ke_mean                      =   3.9820176214590E-06
(PID.TID 0000.0001) %MON ke_vol                       =   4.6183365504908E+12
(PID.TID 0000.0001) // =======================================================
(PID.TID 0000.0001) // End MONITOR dynamic field statistics
(PID.TID 0000.0001) // =======================================================
(PID.TID 0000.0001) // =======================================================
(PID.TID 0000.0001) // Begin OBCS MONITOR field statistics
(PID.TID 0000.0001) // =======================================================
(PID.TID 0000.0001) %MON obc_N_vVel_max               =   1.2993651739897E-07
(PID.TID 0000.0001) %MON obc_N_vVel_min               =   1.2993651739897E-07
(PID.TID 0000.0001) %MON obc_N_vVel_mean              =   1.2993651739897E-07
(PID.TID 0000.0001) %MON obc_N_vVel_sd                =   1.5280799322857E-14
(PID.TID 0000.0001) %MON obc_N_vVel_Int               =   8.5758101483317E+00
(PID.TID 0000.0001) // =======================================================
(PID.TID 0000.0001) // End OBCS MONITOR field statistics
(PID.TID 0000.0001) // =======================================================
 cg2d: Sum(rhs),rhsMax =   3.00264121465837E+00  4.53033632091014E+02
(PID.TID 0000.0001)      cg2d_init_res =   8.02259996737714E-06
(PID.TID 0000.0001)      cg2d_iters(min,last) =      -1      80
(PID.TID 0000.0001)      cg2d_last_res =   9.51791951350053E-12
(PID.TID 0000.0001) // =======================================================
(PID.TID 0000.0001) // Begin MONITOR dynamic field statistics
(PID.TID 0000.0001) // =======================================================
(PID.TID 0000.0001) %MON time_tsnumber                =                  1677
(PID.TID 0000.0001) %MON time_secondsf                =   1.6770000000000E+05
(PID.TID 0000.0001) %MON dynstat_eta_max              =   5.8003304075102E+00
(PID.TID 0000.0001) %MON dynstat_eta_min              =  -1.4163368858988E+01
(PID.TID 0000.0001) %MON dynstat_eta_mean             =  -2.5190693617460E+00
(PID.TID 0000.0001) %MON dynstat_eta_sd               =   4.9396348263690E+00
(PID.TID 0000.0001) %MON dynstat_eta_del2             =   1.9060268274609E-01
(PID.TID 0000.0001) %MON dynstat_uvel_max             =   1.9663864003331E-02
(PID.TID 0000.0001) %MON dynstat_uvel_min             =  -8.7970517827269E-02
(PID.TID 0000.0001) %MON dynstat_uvel_mean            =   9.3186217401097E-09
(PID.TID 0000.0001) %MON dynstat_uvel_sd              =   2.6289648081834E-03
(PID.TID 0000.0001) %MON dynstat_uvel_del2            =   4.2513557799056E-06
(PID.TID 0000.0001) %MON dynstat_vvel_max             =   4.3368569746295E-02
(PID.TID 0000.0001) %MON dynstat_vvel_min             =  -2.9140181072300E-02
(PID.TID 0000.0001) %MON dynstat_vvel_mean            =   2.0411679580616E-07
(PID.TID 0000.0001) %MON dynstat_vvel_sd              =   1.1008661959801E-03
(PID.TID 0000.0001) %MON dynstat_vvel_del2            =   2.7373023654536E-06
(PID.TID 0000.0001) %MON dynstat_wvel_max             =   2.9968857240717E-03
(PID.TID 0000.0001) %MON dynstat_wvel_min             =  -3.1429747415086E-03
(PID.TID 0000.0001) %MON dynstat_wvel_mean            =   6.6695242250729E-10
(PID.TID 0000.0001) %MON dynstat_wvel_sd              =   5.1616181713779E-05
(PID.TID 0000.0001) %MON dynstat_wvel_del2            =   1.8440794023921E-07
(PID.TID 0000.0001) %MON dynstat_theta_max            =   1.2000000000000E+00
(PID.TID 0000.0001) %MON dynstat_theta_min            =  -1.0000000000000E+00
(PID.TID 0000.0001) %MON dynstat_theta_mean           =   5.6454418310327E-01
(PID.TID 0000.0001) %MON dynstat_theta_sd             =   8.4868210910038E-01
(PID.TID 0000.0001) %MON dynstat_theta_del2           =   7.5015571157543E-06
(PID.TID 0000.0001) %MON dynstat_salt_max             =   3.4700000000000E+01
(PID.TID 0000.0001) %MON dynstat_salt_min             =   3.4000000000000E+01
(PID.TID 0000.0001) %MON dynstat_salt_mean            =   3.4497731790809E+01
(PID.TID 0000.0001) %MON dynstat_salt_sd              =   2.7001634909047E-01
(PID.TID 0000.0001) %MON dynstat_salt_del2            =   2.9764395505940E-06
(PID.TID 0000.0001) %MON advcfl_uvel_max              =   8.7970517827269E-03
(PID.TID 0000.0001) %MON advcfl_vvel_max              =   4.3368569746295E-03
(PID.TID 0000.0001) %MON advcfl_wvel_max              =   1.5714873707543E-02
(PID.TID 0000.0001) %MON advcfl_W_hf_max              =   1.5714873707543E-02
(PID.TID 0000.0001) %MON pe_b_mean                    =  -6.8045877830817E-01
(PID.TID 0000.0001) %MON ke_max                       =   3.6988142166198E-03
(PID.TID 0000.0001) %MON ke_mean                      =   3.9967018500834E-06
(PID.TID 0000.0001) %MON ke_vol                       =   4.6183366391783E+12
(PID.TID 0000.0001) // =======================================================
(PID.TID 0000.0001) // End MONITOR dynamic field statistics
(PID.TID 0000.0001) // =======================================================
(PID.TID 0000.0001) // =======================================================
(PID.TID 0000.0001) // Begin OBCS MONITOR field statistics
(PID.TID 0000.0001) // =======================================================
(PID.TID 0000.0001) %MON obc_N_vVel_max               =   1.3086425205803E-07
(PID.TID 0000.0001) %MON obc_N_vVel_min               =   1.3086425205802E-07
(PID.TID 0000.0001) %MON obc_N_vVel_mean              =   1.3086425205802E-07
(PID.TID 0000.0001) %MON obc_N_vVel_sd                =   2.9296427510542E-14
(PID.TID 0000.0001) %MON obc_N_vVel_Int               =   8.6370406358294E+00
(PID.TID 0000.0001) // =======================================================
(PID.TID 0000.0001) // End OBCS MONITOR field statistics
(PID.TID 0000.0001) // =======================================================
 cg2d: Sum(rhs),rhsMax =   3.00262354631616E+00  4.53033605158391E+02
(PID.TID 0000.0001)      cg2d_init_res =   8.03282210161086E-06
(PID.TID 0000.0001)      cg2d_iters(min,last) =      -1      80
(PID.TID 0000.0001)      cg2d_last_res =   9.53318203164917E-12
(PID.TID 0000.0001) // =======================================================
(PID.TID 0000.0001) // Begin MONITOR dynamic field statistics
(PID.TID 0000.0001) // =======================================================
(PID.TID 0000.0001) %MON time_tsnumber                =                  1678
(PID.TID 0000.0001) %MON time_secondsf                =   1.6780000000000E+05
(PID.TID 0000.0001) %MON dynstat_eta_max              =   5.8003342544992E+00
(PID.TID 0000.0001) %MON dynstat_eta_min              =  -1.4163365040503E+01
(PID.TID 0000.0001) %MON dynstat_eta_mean             =  -2.5190543891131E+00
(PID.TID 0000.0001) %MON dynstat_eta_sd               =   4.9396304707999E+00
(PID.TID 0000.0001) %MON dynstat_eta_del2             =   1.9060272607079E-01
(PID.TID 0000.0001) %MON dynstat_uvel_max             =   1.9696779180164E-02
(PID.TID 0000.0001) %MON dynstat_uvel_min             =  -8.8114494695677E-02
(PID.TID 0000.0001) %MON dynstat_uvel_mean            =   9.3249416202064E-09
(PID.TID 0000.0001) %MON dynstat_uvel_sd              =   2.6338496081412E-03
(PID.TID 0000.0001) %MON dynstat_uvel_del2            =   4.2602052529023E-06
(PID.TID 0000.0001) %MON dynstat_vvel_max             =   4.3409829668558E-02
(PID.TID 0000.0001) %MON dynstat_vvel_min             =  -2.9204531538600E-02
(PID.TID 0000.0001) %MON dynstat_vvel_mean            =   2.0545619254899E-07
(PID.TID 0000.0001) %MON dynstat_vvel_sd              =   1.1027857417739E-03
(PID.TID 0000.0001) %MON dynstat_vvel_del2            =   2.7414613759671E-06
(PID.TID 0000.0001) %MON dynstat_wvel_max             =   3.0001721129289E-03
(PID.TID 0000.0001) %MON dynstat_wvel_min             =  -3.1417106927704E-03
(PID.TID 0000.0001) %MON dynstat_wvel_mean            =   6.6882366060474E-10
(PID.TID 0000.0001) %MON dynstat_wvel_sd              =   5.1679959748292E-05
(PID.TID 0000.0001) %MON dynstat_wvel_del2            =   1.8461759234017E-07
(PID.TID 0000.0001) %MON dynstat_theta_max            =   1.2000000000000E+00
(PID.TID 0000.0001) %MON dynstat_theta_min            =  -1.0000000000000E+00
(PID.TID 0000.0001) %MON dynstat_theta_mean           =   5.6454250805959E-01
(PID.TID 0000.0001) %MON dynstat_theta_sd             =   8.4868141532227E-01
(PID.TID 0000.0001) %MON dynstat_theta_del2           =   7.5125443572730E-06
(PID.TID 0000.0001) %MON dynstat_salt_max             =   3.4700000000000E+01
(PID.TID 0000.0001) %MON dynstat_salt_min             =   3.4000000000000E+01
(PID.TID 0000.0001) %MON dynstat_salt_mean            =   3.4497731120789E+01
(PID.TID 0000.0001) %MON dynstat_salt_sd              =   2.7001609438521E-01
(PID.TID 0000.0001) %MON dynstat_salt_del2            =   2.9808264385202E-06
(PID.TID 0000.0001) %MON advcfl_uvel_max              =   8.8114494695677E-03
(PID.TID 0000.0001) %MON advcfl_vvel_max              =   4.3409829668558E-03
(PID.TID 0000.0001) %MON advcfl_wvel_max              =   1.5708553463852E-02
(PID.TID 0000.0001) %MON advcfl_W_hf_max              =   1.5708553463852E-02
(PID.TID 0000.0001) %MON pe_b_mean                    =  -6.8045425723462E-01
(PID.TID 0000.0001) %MON ke_max                       =   3.7108643684513E-03
(PID.TID 0000.0001) %MON ke_mean                      =   4.0114290628352E-06
(PID.TID 0000.0001) %MON ke_vol                       =   4.6183367279912E+12
(PID.TID 0000.0001) // =======================================================
(PID.TID 0000.0001) // End MONITOR dynamic field statistics
(PID.TID 0000.0001) // =======================================================
(PID.TID 0000.0001) // =======================================================
(PID.TID 0000.0001) // Begin OBCS MONITOR field statistics
(PID.TID 0000.0001) // =======================================================
(PID.TID 0000.0001) %MON obc_N_vVel_max               =   1.3195036497943E-07
(PID.TID 0000.0001) %MON obc_N_vVel_min               =   1.3195036497943E-07
(PID.TID 0000.0001) %MON obc_N_vVel_mean              =   1.3195036497943E-07
(PID.TID 0000.0001) %MON obc_N_vVel_sd                =  -1.0570736129962E-27
(PID.TID 0000.0001) %MON obc_N_vVel_Int               =   8.7087240886427E+00
(PID.TID 0000.0001) // =======================================================
(PID.TID 0000.0001) // End OBCS MONITOR field statistics
(PID.TID 0000.0001) // =======================================================
 cg2d: Sum(rhs),rhsMax =   3.00260585327359E+00  4.53033578208132E+02
(PID.TID 0000.0001)      cg2d_init_res =   8.04319716251402E-06
(PID.TID 0000.0001)      cg2d_iters(min,last) =      -1      80
(PID.TID 0000.0001)      cg2d_last_res =   9.54855099067621E-12
(PID.TID 0000.0001) // =======================================================
(PID.TID 0000.0001) // Begin MONITOR dynamic field statistics
(PID.TID 0000.0001) // =======================================================
(PID.TID 0000.0001) %MON time_tsnumber                =                  1679
(PID.TID 0000.0001) %MON time_secondsf                =   1.6790000000000E+05
(PID.TID 0000.0001) %MON dynstat_eta_max              =   5.8003381000700E+00
(PID.TID 0000.0001) %MON dynstat_eta_min              =  -1.4163361218792E+01
(PID.TID 0000.0001) %MON dynstat_eta_mean             =  -2.5190393956615E+00
(PID.TID 0000.0001) %MON dynstat_eta_sd               =   4.9396261090506E+00
(PID.TID 0000.0001) %MON dynstat_eta_del2             =   1.9060276944566E-01
(PID.TID 0000.0001) %MON dynstat_uvel_max             =   1.9729696943001E-02
(PID.TID 0000.0001) %MON dynstat_uvel_min             =  -8.8258518148866E-02
(PID.TID 0000.0001) %MON dynstat_uvel_mean            =   9.3321677614099E-09
(PID.TID 0000.0001) %MON dynstat_uvel_sd              =   2.6387393993727E-03
(PID.TID 0000.0001) %MON dynstat_uvel_del2            =   4.2690679548531E-06
(PID.TID 0000.0001) %MON dynstat_vvel_max             =   4.3451070681621E-02
(PID.TID 0000.0001) %MON dynstat_vvel_min             =  -2.9268913497404E-02
(PID.TID 0000.0001) %MON dynstat_vvel_mean            =   2.0692834258724E-07
(PID.TID 0000.0001) %MON dynstat_vvel_sd              =   1.1047080538402E-03
(PID.TID 0000.0001) %MON dynstat_vvel_del2            =   2.7456248399725E-06
(PID.TID 0000.0001) %MON dynstat_wvel_max             =   3.0034548418468E-03
(PID.TID 0000.0001) %MON dynstat_wvel_min             =  -3.1404307983828E-03
(PID.TID 0000.0001) %MON dynstat_wvel_mean            =   6.7052117937573E-10
(PID.TID 0000.0001) %MON dynstat_wvel_sd              =   5.1743976715794E-05
(PID.TID 0000.0001) %MON dynstat_wvel_del2            =   1.8482823325597E-07
(PID.TID 0000.0001) %MON dynstat_theta_max            =   1.2000000000000E+00
(PID.TID 0000.0001) %MON dynstat_theta_min            =  -1.0000000000000E+00
(PID.TID 0000.0001) %MON dynstat_theta_mean           =   5.6454083056972E-01
(PID.TID 0000.0001) %MON dynstat_theta_sd             =   8.4868072080537E-01
(PID.TID 0000.0001) %MON dynstat_theta_del2           =   7.5235391862629E-06
(PID.TID 0000.0001) %MON dynstat_salt_max             =   3.4700000000000E+01
(PID.TID 0000.0001) %MON dynstat_salt_min             =   3.4000000000000E+01
(PID.TID 0000.0001) %MON dynstat_salt_mean            =   3.4497730449789E+01
(PID.TID 0000.0001) %MON dynstat_salt_sd              =   2.7001583944527E-01
(PID.TID 0000.0001) %MON dynstat_salt_del2            =   2.9852165649182E-06
(PID.TID 0000.0001) %MON advcfl_uvel_max              =   8.8258518148866E-03
(PID.TID 0000.0001) %MON advcfl_vvel_max              =   4.3451070681621E-03
(PID.TID 0000.0001) %MON advcfl_wvel_max              =   1.5702153991914E-02
(PID.TID 0000.0001) %MON advcfl_W_hf_max              =   1.5702153991914E-02
(PID.TID 0000.0001) %MON pe_b_mean                    =  -6.8044972977672E-01
(PID.TID 0000.0001) %MON ke_max                       =   3.7229312058791E-03
(PID.TID 0000.0001) %MON ke_mean                      =   4.0261993517986E-06
(PID.TID 0000.0001) %MON ke_vol                       =   4.6183368169287E+12
(PID.TID 0000.0001) // =======================================================
(PID.TID 0000.0001) // End MONITOR dynamic field statistics
(PID.TID 0000.0001) // =======================================================
(PID.TID 0000.0001) // =======================================================
(PID.TID 0000.0001) // Begin OBCS MONITOR field statistics
(PID.TID 0000.0001) // =======================================================
(PID.TID 0000.0001) %MON obc_N_vVel_max               =   1.3317602585752E-07
(PID.TID 0000.0001) %MON obc_N_vVel_min               =   1.3317602585752E-07
(PID.TID 0000.0001) %MON obc_N_vVel_mean              =   1.3317602585752E-07
(PID.TID 0000.0001) %MON obc_N_vVel_sd                =   2.8532515735352E-14
(PID.TID 0000.0001) %MON obc_N_vVel_Int               =   8.7896177065962E+00
(PID.TID 0000.0001) // =======================================================
(PID.TID 0000.0001) // End OBCS MONITOR field statistics
(PID.TID 0000.0001) // =======================================================
 cg2d: Sum(rhs),rhsMax =   3.00258813568122E+00  4.53033551238722E+02
(PID.TID 0000.0001)      cg2d_init_res =   8.05356996695422E-06
(PID.TID 0000.0001)      cg2d_iters(min,last) =      -1      80
(PID.TID 0000.0001)      cg2d_last_res =   9.56386420464795E-12
(PID.TID 0000.0001) // =======================================================
(PID.TID 0000.0001) // Begin MONITOR dynamic field statistics
(PID.TID 0000.0001) // =======================================================
(PID.TID 0000.0001) %MON time_tsnumber                =                  1680
(PID.TID 0000.0001) %MON time_secondsf                =   1.6800000000000E+05
(PID.TID 0000.0001) %MON dynstat_eta_max              =   5.8003419443046E+00
(PID.TID 0000.0001) %MON dynstat_eta_min              =  -1.4163357393964E+01
(PID.TID 0000.0001) %MON dynstat_eta_mean             =  -2.5190243815091E+00
(PID.TID 0000.0001) %MON dynstat_eta_sd               =   4.9396217411376E+00
(PID.TID 0000.0001) %MON dynstat_eta_del2             =   1.9060281287052E-01
(PID.TID 0000.0001) %MON dynstat_uvel_max             =   1.9762617046770E-02
(PID.TID 0000.0001) %MON dynstat_uvel_min             =  -8.8402587301037E-02
(PID.TID 0000.0001) %MON dynstat_uvel_mean            =   9.3404359990168E-09
(PID.TID 0000.0001) %MON dynstat_uvel_sd              =   2.6436341759615E-03
(PID.TID 0000.0001) %MON dynstat_uvel_del2            =   4.2779438795132E-06
(PID.TID 0000.0001) %MON dynstat_vvel_max             =   4.3492292620954E-02
(PID.TID 0000.0001) %MON dynstat_vvel_min             =  -2.9333326364149E-02
(PID.TID 0000.0001) %MON dynstat_vvel_mean            =   2.0850818501493E-07
(PID.TID 0000.0001) %MON dynstat_vvel_sd              =   1.1066331467375E-03
(PID.TID 0000.0001) %MON dynstat_vvel_del2            =   2.7497927871939E-06
(PID.TID 0000.0001) %MON dynstat_wvel_max             =   3.0067338961917E-03
(PID.TID 0000.0001) %MON dynstat_wvel_min             =  -3.1391352666202E-03
(PID.TID 0000.0001) %MON dynstat_wvel_mean            =   6.7202804886740E-10
(PID.TID 0000.0001) %MON dynstat_wvel_sd              =   5.1808269573449E-05
(PID.TID 0000.0001) %MON dynstat_wvel_del2            =   1.8503999502166E-07
(PID.TID 0000.0001) %MON dynstat_theta_max            =   1.2000000000000E+00
(PID.TID 0000.0001) %MON dynstat_theta_min            =  -1.0000000000000E+00
(PID.TID 0000.0001) %MON dynstat_theta_mean           =   5.6453915063133E-01
(PID.TID 0000.0001) %MON dynstat_theta_sd             =   8.4868002555043E-01
(PID.TID 0000.0001) %MON dynstat_theta_del2           =   7.5345411905885E-06
(PID.TID 0000.0001) %MON dynstat_salt_max             =   3.4700000000000E+01
(PID.TID 0000.0001) %MON dynstat_salt_min             =   3.4000000000000E+01
(PID.TID 0000.0001) %MON dynstat_salt_mean            =   3.4497729777808E+01
(PID.TID 0000.0001) %MON dynstat_salt_sd              =   2.7001558427088E-01
(PID.TID 0000.0001) %MON dynstat_salt_del2            =   2.9896097786471E-06
(PID.TID 0000.0001) %MON advcfl_uvel_max              =   8.8402587301037E-03
(PID.TID 0000.0001) %MON advcfl_vvel_max              =   4.3492292620954E-03
(PID.TID 0000.0001) %MON advcfl_wvel_max              =   1.5695676333101E-02
(PID.TID 0000.0001) %MON advcfl_W_hf_max              =   1.5695676333101E-02
(PID.TID 0000.0001) %MON pe_b_mean                    =  -6.8044519595211E-01
(PID.TID 0000.0001) %MON ke_max                       =   3.7350146964545E-03
(PID.TID 0000.0001) %MON ke_mean                      =   4.0410128055280E-06
(PID.TID 0000.0001) %MON ke_vol                       =   4.6183369059898E+12
(PID.TID 0000.0001) // =======================================================
(PID.TID 0000.0001) // End MONITOR dynamic field statistics
(PID.TID 0000.0001) // =======================================================
(PID.TID 0000.0001) // =======================================================
(PID.TID 0000.0001) // Begin OBCS MONITOR field statistics
(PID.TID 0000.0001) // =======================================================
(PID.TID 0000.0001) %MON obc_N_vVel_max               =   1.3451941832150E-07
(PID.TID 0000.0001) %MON obc_N_vVel_min               =   1.3451941832150E-07
(PID.TID 0000.0001) %MON obc_N_vVel_mean              =   1.3451941832150E-07
(PID.TID 0000.0001) %MON obc_N_vVel_sd                =   3.5080236774355E-14
(PID.TID 0000.0001) %MON obc_N_vVel_Int               =   8.8782816092190E+00
(PID.TID 0000.0001) // =======================================================
(PID.TID 0000.0001) // End OBCS MONITOR field statistics
(PID.TID 0000.0001) // =======================================================
 cg2d: Sum(rhs),rhsMax =   3.00257039365961E+00  4.53033524248320E+02
(PID.TID 0000.0001)      cg2d_init_res =   8.06395447737128E-06
(PID.TID 0000.0001)      cg2d_iters(min,last) =      -1      80
(PID.TID 0000.0001)      cg2d_last_res =   9.57916250778518E-12
(PID.TID 0000.0001) // =======================================================
(PID.TID 0000.0001) // Begin MONITOR dynamic field statistics
(PID.TID 0000.0001) // =======================================================
(PID.TID 0000.0001) %MON time_tsnumber                =                  1681
(PID.TID 0000.0001) %MON time_secondsf                =   1.6810000000000E+05
(PID.TID 0000.0001) %MON dynstat_eta_max              =   5.8003457873343E+00
(PID.TID 0000.0001) %MON dynstat_eta_min              =  -1.4163353566114E+01
(PID.TID 0000.0001) %MON dynstat_eta_mean             =  -2.5190093467468E+00
(PID.TID 0000.0001) %MON dynstat_eta_sd               =   4.9396173670660E+00
(PID.TID 0000.0001) %MON dynstat_eta_del2             =   1.9060285634518E-01
(PID.TID 0000.0001) %MON dynstat_uvel_max             =   1.9795539245987E-02
(PID.TID 0000.0001) %MON dynstat_uvel_min             =  -8.8546701263674E-02
(PID.TID 0000.0001) %MON dynstat_uvel_mean            =   9.3498567013577E-09
(PID.TID 0000.0001) %MON dynstat_uvel_sd              =   2.6485339319461E-03
(PID.TID 0000.0001) %MON dynstat_uvel_del2            =   4.2868330202000E-06
(PID.TID 0000.0001) %MON dynstat_vvel_max             =   4.3533495318575E-02
(PID.TID 0000.0001) %MON dynstat_vvel_min             =  -2.9397769551561E-02
(PID.TID 0000.0001) %MON dynstat_vvel_mean            =   2.1016854193923E-07
(PID.TID 0000.0001) %MON dynstat_vvel_sd              =   1.1085610315141E-03
(PID.TID 0000.0001) %MON dynstat_vvel_del2            =   2.7539652342717E-06
(PID.TID 0000.0001) %MON dynstat_wvel_max             =   3.0100092614294E-03
(PID.TID 0000.0001) %MON dynstat_wvel_min             =  -3.1378243045684E-03
(PID.TID 0000.0001) %MON dynstat_wvel_mean            =   6.7333180471972E-10
(PID.TID 0000.0001) %MON dynstat_wvel_sd              =   5.1872861978980E-05
(PID.TID 0000.0001) %MON dynstat_wvel_del2            =   1.8525296879092E-07
(PID.TID 0000.0001) %MON dynstat_theta_max            =   1.2000000000000E+00
(PID.TID 0000.0001) %MON dynstat_theta_min            =  -1.0000000000000E+00
(PID.TID 0000.0001) %MON dynstat_theta_mean           =   5.6453746824202E-01
(PID.TID 0000.0001) %MON dynstat_theta_sd             =   8.4867932955725E-01
(PID.TID 0000.0001) %MON dynstat_theta_del2           =   7.5455506332512E-06
(PID.TID 0000.0001) %MON dynstat_salt_max             =   3.4700000000000E+01
(PID.TID 0000.0001) %MON dynstat_salt_min             =   3.4000000000000E+01
(PID.TID 0000.0001) %MON dynstat_salt_mean            =   3.4497729104845E+01
(PID.TID 0000.0001) %MON dynstat_salt_sd              =   2.7001532886236E-01
(PID.TID 0000.0001) %MON dynstat_salt_del2            =   2.9940061946327E-06
(PID.TID 0000.0001) %MON advcfl_uvel_max              =   8.8546701263674E-03
(PID.TID 0000.0001) %MON advcfl_vvel_max              =   4.3533495318575E-03
(PID.TID 0000.0001) %MON advcfl_wvel_max              =   1.5689121522842E-02
(PID.TID 0000.0001) %MON advcfl_W_hf_max              =   1.5689121522842E-02
(PID.TID 0000.0001) %MON pe_b_mean                    =  -6.8044065577257E-01
(PID.TID 0000.0001) %MON ke_max                       =   3.7471148089013E-03
(PID.TID 0000.0001) %MON ke_mean                      =   4.0558695086633E-06
(PID.TID 0000.0001) %MON ke_vol                       =   4.6183369951738E+12
(PID.TID 0000.0001) // =======================================================
(PID.TID 0000.0001) // End MONITOR dynamic field statistics
(PID.TID 0000.0001) // =======================================================
(PID.TID 0000.0001) // =======================================================
(PID.TID 0000.0001) // Begin OBCS MONITOR field statistics
(PID.TID 0000.0001) // =======================================================
(PID.TID 0000.0001) %MON obc_N_vVel_max               =   1.3595632848478E-07
(PID.TID 0000.0001) %MON obc_N_vVel_min               =   1.3595632848478E-07
(PID.TID 0000.0001) %MON obc_N_vVel_mean              =   1.3595632848478E-07
(PID.TID 0000.0001) %MON obc_N_vVel_sd                =  -4.1020767071493E-28
(PID.TID 0000.0001) %MON obc_N_vVel_Int               =   8.9731176799957E+00
(PID.TID 0000.0001) // =======================================================
(PID.TID 0000.0001) // End OBCS MONITOR field statistics
(PID.TID 0000.0001) // =======================================================
 cg2d: Sum(rhs),rhsMax =   3.00255262729715E+00  4.53033497234763E+02
(PID.TID 0000.0001)      cg2d_init_res =   8.07436385318557E-06
(PID.TID 0000.0001)      cg2d_iters(min,last) =      -1      80
(PID.TID 0000.0001)      cg2d_last_res =   9.59443927973626E-12
(PID.TID 0000.0001) // =======================================================
(PID.TID 0000.0001) // Begin MONITOR dynamic field statistics
(PID.TID 0000.0001) // =======================================================
(PID.TID 0000.0001) %MON time_tsnumber                =                  1682
(PID.TID 0000.0001) %MON time_secondsf                =   1.6820000000000E+05
(PID.TID 0000.0001) %MON dynstat_eta_max              =   5.8003496293438E+00
(PID.TID 0000.0001) %MON dynstat_eta_min              =  -1.4163349735258E+01
(PID.TID 0000.0001) %MON dynstat_eta_mean             =  -2.5189942914368E+00
(PID.TID 0000.0001) %MON dynstat_eta_sd               =   4.9396129868312E+00
(PID.TID 0000.0001) %MON dynstat_eta_del2             =   1.9060289986958E-01
(PID.TID 0000.0001) %MON dynstat_uvel_max             =   1.9828463323672E-02
(PID.TID 0000.0001) %MON dynstat_uvel_min             =  -8.8690859145203E-02
(PID.TID 0000.0001) %MON dynstat_uvel_mean            =   9.3605108961157E-09
(PID.TID 0000.0001) %MON dynstat_uvel_sd              =   2.6534386613261E-03
(PID.TID 0000.0001) %MON dynstat_uvel_del2            =   4.2957353702871E-06
(PID.TID 0000.0001) %MON dynstat_vvel_max             =   4.3574678647473E-02
(PID.TID 0000.0001) %MON dynstat_vvel_min             =  -2.9462242468785E-02
(PID.TID 0000.0001) %MON dynstat_vvel_mean            =   2.1188080724001E-07
(PID.TID 0000.0001) %MON dynstat_vvel_sd              =   1.1104917153371E-03
(PID.TID 0000.0001) %MON dynstat_vvel_del2            =   2.7581421840383E-06
(PID.TID 0000.0001) %MON dynstat_wvel_max             =   3.0132809236746E-03
(PID.TID 0000.0001) %MON dynstat_wvel_min             =  -3.1364981178303E-03
(PID.TID 0000.0001) %MON dynstat_wvel_mean            =   6.7442484211361E-10
(PID.TID 0000.0001) %MON dynstat_wvel_sd              =   5.1937763352342E-05
(PID.TID 0000.0001) %MON dynstat_wvel_del2            =   1.8546720120406E-07
(PID.TID 0000.0001) %MON dynstat_theta_max            =   1.2000000000000E+00
(PID.TID 0000.0001) %MON dynstat_theta_min            =  -1.0000000000000E+00
(PID.TID 0000.0001) %MON dynstat_theta_mean           =   5.6453578339932E-01
(PID.TID 0000.0001) %MON dynstat_theta_sd             =   8.4867863282515E-01
(PID.TID 0000.0001) %MON dynstat_theta_del2           =   7.5565674932156E-06
(PID.TID 0000.0001) %MON dynstat_salt_max             =   3.4700000000000E+01
(PID.TID 0000.0001) %MON dynstat_salt_min             =   3.4000000000000E+01
(PID.TID 0000.0001) %MON dynstat_salt_mean            =   3.4497728430900E+01
(PID.TID 0000.0001) %MON dynstat_salt_sd              =   2.7001507321960E-01
(PID.TID 0000.0001) %MON dynstat_salt_del2            =   2.9984058073676E-06
(PID.TID 0000.0001) %MON advcfl_uvel_max              =   8.8690859145203E-03
(PID.TID 0000.0001) %MON advcfl_vvel_max              =   4.3574678647473E-03
(PID.TID 0000.0001) %MON advcfl_wvel_max              =   1.5682490589152E-02
(PID.TID 0000.0001) %MON advcfl_W_hf_max              =   1.5682490589152E-02
(PID.TID 0000.0001) %MON pe_b_mean                    =  -6.8043610924373E-01
(PID.TID 0000.0001) %MON ke_max                       =   3.7592315131611E-03
(PID.TID 0000.0001) %MON ke_mean                      =   4.0707695414994E-06
(PID.TID 0000.0001) %MON ke_vol                       =   4.6183370844803E+12
(PID.TID 0000.0001) // =======================================================
(PID.TID 0000.0001) // End MONITOR dynamic field statistics
(PID.TID 0000.0001) // =======================================================
(PID.TID 0000.0001) // =======================================================
(PID.TID 0000.0001) // Begin OBCS MONITOR field statistics
(PID.TID 0000.0001) // =======================================================
(PID.TID 0000.0001) %MON obc_N_vVel_max               =   1.3746076364192E-07
(PID.TID 0000.0001) %MON obc_N_vVel_min               =   1.3746076364191E-07
(PID.TID 0000.0001) %MON obc_N_vVel_mean              =   1.3746076364192E-07
(PID.TID 0000.0001) %MON obc_N_vVel_sd                =  -1.3757734187054E-27
(PID.TID 0000.0001) %MON obc_N_vVel_Int               =   9.0724104003664E+00
(PID.TID 0000.0001) // =======================================================
(PID.TID 0000.0001) // End OBCS MONITOR field statistics
(PID.TID 0000.0001) // =======================================================
 cg2d: Sum(rhs),rhsMax =   3.00253483664793E+00  4.53033470195649E+02
(PID.TID 0000.0001)      cg2d_init_res =   8.08479212680724E-06
(PID.TID 0000.0001)      cg2d_iters(min,last) =      -1      80
(PID.TID 0000.0001)      cg2d_last_res =   9.60969664055506E-12
(PID.TID 0000.0001) // =======================================================
(PID.TID 0000.0001) // Begin MONITOR dynamic field statistics
(PID.TID 0000.0001) // =======================================================
(PID.TID 0000.0001) %MON time_tsnumber                =                  1683
(PID.TID 0000.0001) %MON time_secondsf                =   1.6830000000000E+05
(PID.TID 0000.0001) %MON dynstat_eta_max              =   5.8003534705628E+00
(PID.TID 0000.0001) %MON dynstat_eta_min              =  -1.4163345901389E+01
(PID.TID 0000.0001) %MON dynstat_eta_mean             =  -2.5189792156110E+00
(PID.TID 0000.0001) %MON dynstat_eta_sd               =   4.9396086004178E+00
(PID.TID 0000.0001) %MON dynstat_eta_del2             =   1.9060294344358E-01
(PID.TID 0000.0001) %MON dynstat_uvel_max             =   1.9861389074094E-02
(PID.TID 0000.0001) %MON dynstat_uvel_min             =  -8.8835060051231E-02
(PID.TID 0000.0001) %MON dynstat_uvel_mean            =   9.3724454721109E-09
(PID.TID 0000.0001) %MON dynstat_uvel_sd              =   2.6583483580423E-03
(PID.TID 0000.0001) %MON dynstat_uvel_del2            =   4.3046509225921E-06
(PID.TID 0000.0001) %MON dynstat_vvel_max             =   4.3615842577255E-02
(PID.TID 0000.0001) %MON dynstat_vvel_min             =  -2.9526744520922E-02
(PID.TID 0000.0001) %MON dynstat_vvel_mean            =   2.1361566237469E-07
(PID.TID 0000.0001) %MON dynstat_vvel_sd              =   1.1124252014907E-03
(PID.TID 0000.0001) %MON dynstat_vvel_del2            =   2.7623236253700E-06
(PID.TID 0000.0001) %MON dynstat_wvel_max             =   3.0165488704432E-03
(PID.TID 0000.0001) %MON dynstat_wvel_min             =  -3.1351569119370E-03
(PID.TID 0000.0001) %MON dynstat_wvel_mean            =   6.7530485840637E-10
(PID.TID 0000.0001) %MON dynstat_wvel_sd              =   5.2002968694588E-05
(PID.TID 0000.0001) %MON dynstat_wvel_del2            =   1.8568269351764E-07
(PID.TID 0000.0001) %MON dynstat_theta_max            =   1.2000000000000E+00
(PID.TID 0000.0001) %MON dynstat_theta_min            =  -1.0000000000000E+00
(PID.TID 0000.0001) %MON dynstat_theta_mean           =   5.6453409610069E-01
(PID.TID 0000.0001) %MON dynstat_theta_sd             =   8.4867793535293E-01
(PID.TID 0000.0001) %MON dynstat_theta_del2           =   7.5675917763829E-06
(PID.TID 0000.0001) %MON dynstat_salt_max             =   3.4700000000000E+01
(PID.TID 0000.0001) %MON dynstat_salt_min             =   3.4000000000000E+01
(PID.TID 0000.0001) %MON dynstat_salt_mean            =   3.4497727755971E+01
(PID.TID 0000.0001) %MON dynstat_salt_sd              =   2.7001481734250E-01
(PID.TID 0000.0001) %MON dynstat_salt_del2            =   3.0028086168175E-06
(PID.TID 0000.0001) %MON advcfl_uvel_max              =   8.8835060051231E-03
(PID.TID 0000.0001) %MON advcfl_vvel_max              =   4.3615842577255E-03
(PID.TID 0000.0001) %MON advcfl_wvel_max              =   1.5675784559685E-02
(PID.TID 0000.0001) %MON advcfl_W_hf_max              =   1.5675784559685E-02
(PID.TID 0000.0001) %MON pe_b_mean                    =  -6.8043155636494E-01
(PID.TID 0000.0001) %MON ke_max                       =   3.7713647804272E-03
(PID.TID 0000.0001) %MON ke_mean                      =   4.0857129798943E-06
(PID.TID 0000.0001) %MON ke_vol                       =   4.6183371739089E+12
(PID.TID 0000.0001) // =======================================================
(PID.TID 0000.0001) // End MONITOR dynamic field statistics
(PID.TID 0000.0001) // =======================================================
(PID.TID 0000.0001) // =======================================================
(PID.TID 0000.0001) // Begin OBCS MONITOR field statistics
(PID.TID 0000.0001) // =======================================================
(PID.TID 0000.0001) %MON obc_N_vVel_max               =   1.3900560874183E-07
(PID.TID 0000.0001) %MON obc_N_vVel_min               =   1.3900560874183E-07
(PID.TID 0000.0001) %MON obc_N_vVel_mean              =   1.3900560874183E-07
(PID.TID 0000.0001) %MON obc_N_vVel_sd                =  -5.0171553572056E-28
(PID.TID 0000.0001) %MON obc_N_vVel_Int               =   9.1743701769608E+00
(PID.TID 0000.0001) // =======================================================
(PID.TID 0000.0001) // End OBCS MONITOR field statistics
(PID.TID 0000.0001) // =======================================================
 cg2d: Sum(rhs),rhsMax =   3.00251702173051E+00  4.53033443128428E+02
(PID.TID 0000.0001)      cg2d_init_res =   8.09524038297084E-06
(PID.TID 0000.0001)      cg2d_iters(min,last) =      -1      80
(PID.TID 0000.0001)      cg2d_last_res =   9.62494097377861E-12
(PID.TID 0000.0001) // =======================================================
(PID.TID 0000.0001) // Begin MONITOR dynamic field statistics
(PID.TID 0000.0001) // =======================================================
(PID.TID 0000.0001) %MON time_tsnumber                =                  1684
(PID.TID 0000.0001) %MON time_secondsf                =   1.6840000000000E+05
(PID.TID 0000.0001) %MON dynstat_eta_max              =   5.8003573112736E+00
(PID.TID 0000.0001) %MON dynstat_eta_min              =  -1.4163342064431E+01
(PID.TID 0000.0001) %MON dynstat_eta_mean             =  -2.5189641192709E+00
(PID.TID 0000.0001) %MON dynstat_eta_sd               =   4.9396042078000E+00
(PID.TID 0000.0001) %MON dynstat_eta_del2             =   1.9060298706700E-01
(PID.TID 0000.0001) %MON dynstat_uvel_max             =   1.9894316294338E-02
(PID.TID 0000.0001) %MON dynstat_uvel_min             =  -8.8979303085090E-02
(PID.TID 0000.0001) %MON dynstat_uvel_mean            =   9.3856714094887E-09
(PID.TID 0000.0001) %MON dynstat_uvel_sd              =   2.6632630159932E-03
(PID.TID 0000.0001) %MON dynstat_uvel_del2            =   4.3135796700492E-06
(PID.TID 0000.0001) %MON dynstat_vvel_max             =   4.3656987077584E-02
(PID.TID 0000.0001) %MON dynstat_vvel_min             =  -2.9591275109468E-02
(PID.TID 0000.0001) %MON dynstat_vvel_mean            =   2.1534380261864E-07
(PID.TID 0000.0001) %MON dynstat_vvel_sd              =   1.1143614895584E-03
(PID.TID 0000.0001) %MON dynstat_vvel_del2            =   2.7665095344707E-06
(PID.TID 0000.0001) %MON dynstat_wvel_max             =   3.0198130894545E-03
(PID.TID 0000.0001) %MON dynstat_wvel_min             =  -3.1338008937221E-03
(PID.TID 0000.0001) %MON dynstat_wvel_mean            =   6.7597471216407E-10
(PID.TID 0000.0001) %MON dynstat_wvel_sd              =   5.2068459135863E-05
(PID.TID 0000.0001) %MON dynstat_wvel_del2            =   1.8589940283875E-07
(PID.TID 0000.0001) %MON dynstat_theta_max            =   1.2000000000000E+00
(PID.TID 0000.0001) %MON dynstat_theta_min            =  -1.0000000000000E+00
(PID.TID 0000.0001) %MON dynstat_theta_mean           =   5.6453240634356E-01
(PID.TID 0000.0001) %MON dynstat_theta_sd             =   8.4867723714063E-01
(PID.TID 0000.0001) %MON dynstat_theta_del2           =   7.5786232753770E-06
(PID.TID 0000.0001) %MON dynstat_salt_max             =   3.4700000000000E+01
(PID.TID 0000.0001) %MON dynstat_salt_min             =   3.4000000000000E+01
(PID.TID 0000.0001) %MON dynstat_salt_mean            =   3.4497727080058E+01
(PID.TID 0000.0001) %MON dynstat_salt_sd              =   2.7001456123122E-01
(PID.TID 0000.0001) %MON dynstat_salt_del2            =   3.0072145408203E-06
(PID.TID 0000.0001) %MON advcfl_uvel_max              =   8.8979303085090E-03
(PID.TID 0000.0001) %MON advcfl_vvel_max              =   4.3656987077584E-03
(PID.TID 0000.0001) %MON advcfl_wvel_max              =   1.5669004468610E-02
(PID.TID 0000.0001) %MON advcfl_W_hf_max              =   1.5669004468610E-02
(PID.TID 0000.0001) %MON pe_b_mean                    =  -6.8042699712932E-01
(PID.TID 0000.0001) %MON ke_max                       =   3.7835145831702E-03
(PID.TID 0000.0001) %MON ke_mean                      =   4.1006998954771E-06
(PID.TID 0000.0001) %MON ke_vol                       =   4.6183372634593E+12
(PID.TID 0000.0001) // =======================================================
(PID.TID 0000.0001) // End MONITOR dynamic field statistics
(PID.TID 0000.0001) // =======================================================
(PID.TID 0000.0001) // =======================================================
(PID.TID 0000.0001) // Begin OBCS MONITOR field statistics
(PID.TID 0000.0001) // =======================================================
(PID.TID 0000.0001) %MON obc_N_vVel_max               =   1.4056329929610E-07
(PID.TID 0000.0001) %MON obc_N_vVel_min               =   1.4056329929610E-07
(PID.TID 0000.0001) %MON obc_N_vVel_mean              =   1.4056329929610E-07
(PID.TID 0000.0001) %MON obc_N_vVel_sd                =  -1.3883951931890E-28
(PID.TID 0000.0001) %MON obc_N_vVel_Int               =   9.2771777535426E+00
(PID.TID 0000.0001) // =======================================================
(PID.TID 0000.0001) // End OBCS MONITOR field statistics
(PID.TID 0000.0001) // =======================================================
 cg2d: Sum(rhs),rhsMax =   3.00249918252798E+00  4.53033416030445E+02
(PID.TID 0000.0001)      cg2d_init_res =   8.10569966826903E-06
(PID.TID 0000.0001)      cg2d_iters(min,last) =      -1      80
(PID.TID 0000.0001)      cg2d_last_res =   9.64018054265284E-12
(PID.TID 0000.0001) // =======================================================
(PID.TID 0000.0001) // Begin MONITOR dynamic field statistics
(PID.TID 0000.0001) // =======================================================
(PID.TID 0000.0001) %MON time_tsnumber                =                  1685
(PID.TID 0000.0001) %MON time_secondsf                =   1.6850000000000E+05
(PID.TID 0000.0001) %MON dynstat_eta_max              =   5.8003611518080E+00
(PID.TID 0000.0001) %MON dynstat_eta_min              =  -1.4163338224271E+01
(PID.TID 0000.0001) %MON dynstat_eta_mean             =  -2.5189490023875E+00
(PID.TID 0000.0001) %MON dynstat_eta_sd               =   4.9395998089422E+00
(PID.TID 0000.0001) %MON dynstat_eta_del2             =   1.9060303073952E-01
(PID.TID 0000.0001) %MON dynstat_uvel_max             =   1.9927244781358E-02
(PID.TID 0000.0001) %MON dynstat_uvel_min             =  -8.9123587348279E-02
(PID.TID 0000.0001) %MON dynstat_uvel_mean            =   9.4001653435375E-09
(PID.TID 0000.0001) %MON dynstat_uvel_sd              =   2.6681826290080E-03
(PID.TID 0000.0001) %MON dynstat_uvel_del2            =   4.3225216047070E-06
(PID.TID 0000.0001) %MON dynstat_vvel_max             =   4.3698112116648E-02
(PID.TID 0000.0001) %MON dynstat_vvel_min             =  -2.9655833631402E-02
(PID.TID 0000.0001) %MON dynstat_vvel_mean            =   2.1703666044702E-07
(PID.TID 0000.0001) %MON dynstat_vvel_sd              =   1.1163005756223E-03
(PID.TID 0000.0001) %MON dynstat_vvel_del2            =   2.7706998748676E-06
(PID.TID 0000.0001) %MON dynstat_wvel_max             =   3.0230735685911E-03
(PID.TID 0000.0001) %MON dynstat_wvel_min             =  -3.1324302651105E-03
(PID.TID 0000.0001) %MON dynstat_wvel_mean            =   6.7644244797319E-10
(PID.TID 0000.0001) %MON dynstat_wvel_sd              =   5.2134203078884E-05
(PID.TID 0000.0001) %MON dynstat_wvel_del2            =   1.8611724462111E-07
(PID.TID 0000.0001) %MON dynstat_theta_max            =   1.2000000000000E+00
(PID.TID 0000.0001) %MON dynstat_theta_min            =  -1.0000000000000E+00
(PID.TID 0000.0001) %MON dynstat_theta_mean           =   5.6453071412534E-01
(PID.TID 0000.0001) %MON dynstat_theta_sd             =   8.4867653818831E-01
(PID.TID 0000.0001) %MON dynstat_theta_del2           =   7.5896622555311E-06
(PID.TID 0000.0001) %MON dynstat_salt_max             =   3.4700000000000E+01
(PID.TID 0000.0001) %MON dynstat_salt_min             =   3.4000000000000E+01
(PID.TID 0000.0001) %MON dynstat_salt_mean            =   3.4497726403159E+01
(PID.TID 0000.0001) %MON dynstat_salt_sd              =   2.7001430488595E-01
(PID.TID 0000.0001) %MON dynstat_salt_del2            =   3.0116236934322E-06
(PID.TID 0000.0001) %MON advcfl_uvel_max              =   8.9123587348279E-03
(PID.TID 0000.0001) %MON advcfl_vvel_max              =   4.3698112116648E-03
(PID.TID 0000.0001) %MON advcfl_wvel_max              =   1.5662151325553E-02
(PID.TID 0000.0001) %MON advcfl_W_hf_max              =   1.5662151325553E-02
(PID.TID 0000.0001) %MON pe_b_mean                    =  -6.8042243152400E-01
(PID.TID 0000.0001) %MON ke_max                       =   3.7956808951418E-03
(PID.TID 0000.0001) %MON ke_mean                      =   4.1157303557612E-06
(PID.TID 0000.0001) %MON ke_vol                       =   4.6183373531315E+12
(PID.TID 0000.0001) // =======================================================
(PID.TID 0000.0001) // End MONITOR dynamic field statistics
(PID.TID 0000.0001) // =======================================================
(PID.TID 0000.0001) // =======================================================
(PID.TID 0000.0001) // Begin OBCS MONITOR field statistics
(PID.TID 0000.0001) // =======================================================
(PID.TID 0000.0001) %MON obc_N_vVel_max               =   1.4210649908020E-07
(PID.TID 0000.0001) %MON obc_N_vVel_min               =   1.4210649908020E-07
(PID.TID 0000.0001) %MON obc_N_vVel_mean              =   1.4210649908020E-07
(PID.TID 0000.0001) %MON obc_N_vVel_sd                =   2.4613922385710E-14
(PID.TID 0000.0001) %MON obc_N_vVel_Int               =   9.3790289392933E+00
(PID.TID 0000.0001) // =======================================================
(PID.TID 0000.0001) // End OBCS MONITOR field statistics
(PID.TID 0000.0001) // =======================================================
 cg2d: Sum(rhs),rhsMax =   3.00248131898838E+00  4.53033388899056E+02
(PID.TID 0000.0001)      cg2d_init_res =   8.11618594201884E-06
(PID.TID 0000.0001)      cg2d_iters(min,last) =      -1      80
(PID.TID 0000.0001)      cg2d_last_res =   9.65540160354730E-12
(PID.TID 0000.0001) // =======================================================
(PID.TID 0000.0001) // Begin MONITOR dynamic field statistics
(PID.TID 0000.0001) // =======================================================
(PID.TID 0000.0001) %MON time_tsnumber                =                  1686
(PID.TID 0000.0001) %MON time_secondsf                =   1.6860000000000E+05
(PID.TID 0000.0001) %MON dynstat_eta_max              =   5.8003649925307E+00
(PID.TID 0000.0001) %MON dynstat_eta_min              =  -1.4163334380754E+01
(PID.TID 0000.0001) %MON dynstat_eta_mean             =  -2.5189338649026E+00
(PID.TID 0000.0001) %MON dynstat_eta_sd               =   4.9395954038016E+00
(PID.TID 0000.0001) %MON dynstat_eta_del2             =   1.9060307446108E-01
(PID.TID 0000.0001) %MON dynstat_uvel_max             =   1.9960174332203E-02
(PID.TID 0000.0001) %MON dynstat_uvel_min             =  -8.9267911940535E-02
(PID.TID 0000.0001) %MON dynstat_uvel_mean            =   9.4158667150960E-09
(PID.TID 0000.0001) %MON dynstat_uvel_sd              =   2.6731071908894E-03
(PID.TID 0000.0001) %MON dynstat_uvel_del2            =   4.3314767191508E-06
(PID.TID 0000.0001) %MON dynstat_vvel_max             =   4.3739217661316E-02
(PID.TID 0000.0001) %MON dynstat_vvel_min             =  -2.9720419479574E-02
(PID.TID 0000.0001) %MON dynstat_vvel_mean            =   2.1866709872257E-07
(PID.TID 0000.0001) %MON dynstat_vvel_sd              =   1.1182424528102E-03
(PID.TID 0000.0001) %MON dynstat_vvel_del2            =   2.7748946010264E-06
(PID.TID 0000.0001) %MON dynstat_wvel_max             =   3.0263302958324E-03
(PID.TID 0000.0001) %MON dynstat_wvel_min             =  -3.1310452254671E-03
(PID.TID 0000.0001) %MON dynstat_wvel_mean            =   6.7672054584628E-10
(PID.TID 0000.0001) %MON dynstat_wvel_sd              =   5.2200157946241E-05
(PID.TID 0000.0001) %MON dynstat_wvel_del2            =   1.8633609707420E-07
(PID.TID 0000.0001) %MON dynstat_theta_max            =   1.2000000000000E+00
(PID.TID 0000.0001) %MON dynstat_theta_min            =  -1.0000000000000E+00
(PID.TID 0000.0001) %MON dynstat_theta_mean           =   5.6452901944342E-01
(PID.TID 0000.0001) %MON dynstat_theta_sd             =   8.4867583849662E-01
(PID.TID 0000.0001) %MON dynstat_theta_del2           =   7.6007087183210E-06
(PID.TID 0000.0001) %MON dynstat_salt_max             =   3.4700000000000E+01
(PID.TID 0000.0001) %MON dynstat_salt_min             =   3.4000000000000E+01
(PID.TID 0000.0001) %MON dynstat_salt_mean            =   3.4497725725274E+01
(PID.TID 0000.0001) %MON dynstat_salt_sd              =   2.7001404830727E-01
(PID.TID 0000.0001) %MON dynstat_salt_del2            =   3.0160359957658E-06
(PID.TID 0000.0001) %MON advcfl_uvel_max              =   8.9267911940535E-03
(PID.TID 0000.0001) %MON advcfl_vvel_max              =   4.3739217661316E-03
(PID.TID 0000.0001) %MON advcfl_wvel_max              =   1.5655226127336E-02
(PID.TID 0000.0001) %MON advcfl_W_hf_max              =   1.5655226127336E-02
(PID.TID 0000.0001) %MON pe_b_mean                    =  -6.8041785953040E-01
(PID.TID 0000.0001) %MON ke_max                       =   3.8078636913504E-03
(PID.TID 0000.0001) %MON ke_mean                      =   4.1308044248336E-06
(PID.TID 0000.0001) %MON ke_vol                       =   4.6183374429258E+12
(PID.TID 0000.0001) // =======================================================
(PID.TID 0000.0001) // End MONITOR dynamic field statistics
(PID.TID 0000.0001) // =======================================================
(PID.TID 0000.0001) // =======================================================
(PID.TID 0000.0001) // Begin OBCS MONITOR field statistics
(PID.TID 0000.0001) // =======================================================
(PID.TID 0000.0001) %MON obc_N_vVel_max               =   1.4360878792535E-07
(PID.TID 0000.0001) %MON obc_N_vVel_min               =   1.4360878792534E-07
(PID.TID 0000.0001) %MON obc_N_vVel_mean              =   1.4360878792535E-07
(PID.TID 0000.0001) %MON obc_N_vVel_sd                =  -1.1706695833480E-27
(PID.TID 0000.0001) %MON obc_N_vVel_Int               =   9.4781800030728E+00
(PID.TID 0000.0001) // =======================================================
(PID.TID 0000.0001) // End OBCS MONITOR field statistics
(PID.TID 0000.0001) // =======================================================
 cg2d: Sum(rhs),rhsMax =   3.00246343102645E+00  4.53033361731674E+02
(PID.TID 0000.0001)      cg2d_init_res =   8.12674204252482E-06
(PID.TID 0000.0001)      cg2d_iters(min,last) =      -1      80
(PID.TID 0000.0001)      cg2d_last_res =   9.67058459119141E-12
(PID.TID 0000.0001) // =======================================================
(PID.TID 0000.0001) // Begin MONITOR dynamic field statistics
(PID.TID 0000.0001) // =======================================================
(PID.TID 0000.0001) %MON time_tsnumber                =                  1687
(PID.TID 0000.0001) %MON time_secondsf                =   1.6870000000000E+05
(PID.TID 0000.0001) %MON dynstat_eta_max              =   5.8003688338512E+00
(PID.TID 0000.0001) %MON dynstat_eta_min              =  -1.4163330533673E+01
(PID.TID 0000.0001) %MON dynstat_eta_mean             =  -2.5189187067302E+00
(PID.TID 0000.0001) %MON dynstat_eta_sd               =   4.9395909923244E+00
(PID.TID 0000.0001) %MON dynstat_eta_del2             =   1.9060311823135E-01
(PID.TID 0000.0001) %MON dynstat_uvel_max             =   1.9993104736957E-02
(PID.TID 0000.0001) %MON dynstat_uvel_min             =  -8.9412275948487E-02
(PID.TID 0000.0001) %MON dynstat_uvel_mean            =   9.4326804941617E-09
(PID.TID 0000.0001) %MON dynstat_uvel_sd              =   2.6780366952927E-03
(PID.TID 0000.0001) %MON dynstat_uvel_del2            =   4.3404450069718E-06
(PID.TID 0000.0001) %MON dynstat_vvel_max             =   4.3780303677448E-02
(PID.TID 0000.0001) %MON dynstat_vvel_min             =  -2.9785032024485E-02
(PID.TID 0000.0001) %MON dynstat_vvel_mean            =   2.2021005513309E-07
(PID.TID 0000.0001) %MON dynstat_vvel_sd              =   1.1201871119668E-03
(PID.TID 0000.0001) %MON dynstat_vvel_del2            =   2.7790936447445E-06
(PID.TID 0000.0001) %MON dynstat_wvel_max             =   3.0295832592726E-03
(PID.TID 0000.0001) %MON dynstat_wvel_min             =  -3.1296459727180E-03
(PID.TID 0000.0001) %MON dynstat_wvel_mean            =   6.7682633555868E-10
(PID.TID 0000.0001) %MON dynstat_wvel_sd              =   5.2266271645417E-05
(PID.TID 0000.0001) %MON dynstat_wvel_del2            =   1.8655579912218E-07
(PID.TID 0000.0001) %MON dynstat_theta_max            =   1.2000000000000E+00
(PID.TID 0000.0001) %MON dynstat_theta_min            =  -1.0000000000000E+00
(PID.TID 0000.0001) %MON dynstat_theta_mean           =   5.6452732229518E-01
(PID.TID 0000.0001) %MON dynstat_theta_sd             =   8.4867513806626E-01
(PID.TID 0000.0001) %MON dynstat_theta_del2           =   7.6117626768586E-06
(PID.TID 0000.0001) %MON dynstat_salt_max             =   3.4700000000000E+01
(PID.TID 0000.0001) %MON dynstat_salt_min             =   3.4000000000000E+01
(PID.TID 0000.0001) %MON dynstat_salt_mean            =   3.4497725046402E+01
(PID.TID 0000.0001) %MON dynstat_salt_sd              =   2.7001379149536E-01
(PID.TID 0000.0001) %MON dynstat_salt_del2            =   3.0204513960381E-06
(PID.TID 0000.0001) %MON advcfl_uvel_max              =   8.9412275948487E-03
(PID.TID 0000.0001) %MON advcfl_vvel_max              =   4.3780303677448E-03
(PID.TID 0000.0001) %MON advcfl_wvel_max              =   1.5648229863590E-02
(PID.TID 0000.0001) %MON advcfl_W_hf_max              =   1.5648229863590E-02
(PID.TID 0000.0001) %MON pe_b_mean                    =  -6.8041328112476E-01
(PID.TID 0000.0001) %MON ke_max                       =   3.8200629480038E-03
(PID.TID 0000.0001) %MON ke_mean                      =   4.1459221637599E-06
(PID.TID 0000.0001) %MON ke_vol                       =   4.6183375328425E+12
(PID.TID 0000.0001) // =======================================================
(PID.TID 0000.0001) // End MONITOR dynamic field statistics
(PID.TID 0000.0001) // =======================================================
(PID.TID 0000.0001) // =======================================================
(PID.TID 0000.0001) // Begin OBCS MONITOR field statistics
(PID.TID 0000.0001) // =======================================================
(PID.TID 0000.0001) %MON obc_N_vVel_max               =   1.4504527688419E-07
(PID.TID 0000.0001) %MON obc_N_vVel_min               =   1.4504527688418E-07
(PID.TID 0000.0001) %MON obc_N_vVel_mean              =   1.4504527688419E-07
(PID.TID 0000.0001) %MON obc_N_vVel_sd                =  -7.4468469452864E-28
(PID.TID 0000.0001) %MON obc_N_vVel_Int               =   9.5729882743562E+00
(PID.TID 0000.0001) // =======================================================
(PID.TID 0000.0001) // End OBCS MONITOR field statistics
(PID.TID 0000.0001) // =======================================================
 cg2d: Sum(rhs),rhsMax =   3.00244551852568E+00  4.53033334525887E+02
(PID.TID 0000.0001)      cg2d_init_res =   8.13727917785178E-06
(PID.TID 0000.0001)      cg2d_iters(min,last) =      -1      80
(PID.TID 0000.0001)      cg2d_last_res =   9.68576150357955E-12
(PID.TID 0000.0001) // =======================================================
(PID.TID 0000.0001) // Begin MONITOR dynamic field statistics
(PID.TID 0000.0001) // =======================================================
(PID.TID 0000.0001) %MON time_tsnumber                =                  1688
(PID.TID 0000.0001) %MON time_secondsf                =   1.6880000000000E+05
(PID.TID 0000.0001) %MON dynstat_eta_max              =   5.8003726762183E+00
(PID.TID 0000.0001) %MON dynstat_eta_min              =  -1.4163326682801E+01
(PID.TID 0000.0001) %MON dynstat_eta_mean             =  -2.5189035277592E+00
(PID.TID 0000.0001) %MON dynstat_eta_sd               =   4.9395865744610E+00
(PID.TID 0000.0001) %MON dynstat_eta_del2             =   1.9060316205028E-01
(PID.TID 0000.0001) %MON dynstat_uvel_max             =   2.0026035802026E-02
(PID.TID 0000.0001) %MON dynstat_uvel_min             =  -8.9556678475152E-02
(PID.TID 0000.0001) %MON dynstat_uvel_mean            =   9.4505207046707E-09
(PID.TID 0000.0001) %MON dynstat_uvel_sd              =   2.6829711359609E-03
(PID.TID 0000.0001) %MON dynstat_uvel_del2            =   4.3494264623540E-06
(PID.TID 0000.0001) %MON dynstat_vvel_max             =   4.3821370129826E-02
(PID.TID 0000.0001) %MON dynstat_vvel_min             =  -2.9849670650187E-02
(PID.TID 0000.0001) %MON dynstat_vvel_mean            =   2.2164316733241E-07
(PID.TID 0000.0001) %MON dynstat_vvel_sd              =   1.1221345420889E-03
(PID.TID 0000.0001) %MON dynstat_vvel_del2            =   2.7832969442542E-06
(PID.TID 0000.0001) %MON dynstat_wvel_max             =   3.0328324471113E-03
(PID.TID 0000.0001) %MON dynstat_wvel_min             =  -3.1282327063113E-03
(PID.TID 0000.0001) %MON dynstat_wvel_mean            =   6.7678029611184E-10
(PID.TID 0000.0001) %MON dynstat_wvel_sd              =   5.2332486839901E-05
(PID.TID 0000.0001) %MON dynstat_wvel_del2            =   1.8677617346425E-07
(PID.TID 0000.0001) %MON dynstat_theta_max            =   1.2000000000000E+00
(PID.TID 0000.0001) %MON dynstat_theta_min            =  -1.0000000000000E+00
(PID.TID 0000.0001) %MON dynstat_theta_mean           =   5.6452562267805E-01
(PID.TID 0000.0001) %MON dynstat_theta_sd             =   8.4867443689886E-01
(PID.TID 0000.0001) %MON dynstat_theta_del2           =   7.6228244383729E-06
(PID.TID 0000.0001) %MON dynstat_salt_max             =   3.4700000000000E+01
(PID.TID 0000.0001) %MON dynstat_salt_min             =   3.4000000000000E+01
(PID.TID 0000.0001) %MON dynstat_salt_mean            =   3.4497724366541E+01
(PID.TID 0000.0001) %MON dynstat_salt_sd              =   2.7001353445105E-01
(PID.TID 0000.0001) %MON dynstat_salt_del2            =   3.0248699148030E-06
(PID.TID 0000.0001) %MON advcfl_uvel_max              =   8.9556678475152E-03
(PID.TID 0000.0001) %MON advcfl_vvel_max              =   4.3821370129826E-03
(PID.TID 0000.0001) %MON advcfl_wvel_max              =   1.5641163531557E-02
(PID.TID 0000.0001) %MON advcfl_W_hf_max              =   1.5641163531557E-02
(PID.TID 0000.0001) %MON pe_b_mean                    =  -6.8040869627873E-01
(PID.TID 0000.0001) %MON ke_max                       =   3.8322786426969E-03
(PID.TID 0000.0001) %MON ke_mean                      =   4.1610836316641E-06
(PID.TID 0000.0001) %MON ke_vol                       =   4.6183376228820E+12
(PID.TID 0000.0001) // =======================================================
(PID.TID 0000.0001) // End MONITOR dynamic field statistics
(PID.TID 0000.0001) // =======================================================
(PID.TID 0000.0001) // =======================================================
(PID.TID 0000.0001) // Begin OBCS MONITOR field statistics
(PID.TID 0000.0001) // =======================================================
(PID.TID 0000.0001) %MON obc_N_vVel_max               =   1.4639322875324E-07
(PID.TID 0000.0001) %MON obc_N_vVel_min               =   1.4639322875323E-07
(PID.TID 0000.0001) %MON obc_N_vVel_mean              =   1.4639322875323E-07
(PID.TID 0000.0001) %MON obc_N_vVel_sd                =   3.8098609759500E-14
(PID.TID 0000.0001) %MON obc_N_vVel_Int               =   9.6619530977133E+00
(PID.TID 0000.0001) // =======================================================
(PID.TID 0000.0001) // End OBCS MONITOR field statistics
(PID.TID 0000.0001) // =======================================================
 cg2d: Sum(rhs),rhsMax =   3.00242758134160E+00  4.53033307279490E+02
(PID.TID 0000.0001)      cg2d_init_res =   8.14784957723009E-06
(PID.TID 0000.0001)      cg2d_iters(min,last) =      -1      80
(PID.TID 0000.0001)      cg2d_last_res =   9.70088484709543E-12
(PID.TID 0000.0001) // =======================================================
(PID.TID 0000.0001) // Begin MONITOR dynamic field statistics
(PID.TID 0000.0001) // =======================================================
(PID.TID 0000.0001) %MON time_tsnumber                =                  1689
(PID.TID 0000.0001) %MON time_secondsf                =   1.6890000000000E+05
(PID.TID 0000.0001) %MON dynstat_eta_max              =   5.8003765200938E+00
(PID.TID 0000.0001) %MON dynstat_eta_min              =  -1.4163322827871E+01
(PID.TID 0000.0001) %MON dynstat_eta_mean             =  -2.5188883278562E+00
(PID.TID 0000.0001) %MON dynstat_eta_sd               =   4.9395821501534E+00
(PID.TID 0000.0001) %MON dynstat_eta_del2             =   1.9060320591780E-01
(PID.TID 0000.0001) %MON dynstat_uvel_max             =   2.0058967327799E-02
(PID.TID 0000.0001) %MON dynstat_uvel_min             =  -8.9701118615359E-02
(PID.TID 0000.0001) %MON dynstat_uvel_mean            =   9.4692309424997E-09
(PID.TID 0000.0001) %MON dynstat_uvel_sd              =   2.6879105065485E-03
(PID.TID 0000.0001) %MON dynstat_uvel_del2            =   4.3584210788685E-06
(PID.TID 0000.0001) %MON dynstat_vvel_max             =   4.3862416982705E-02
(PID.TID 0000.0001) %MON dynstat_vvel_min             =  -2.9914334727817E-02
(PID.TID 0000.0001) %MON dynstat_vvel_mean            =   2.2294727211339E-07
(PID.TID 0000.0001) %MON dynstat_vvel_sd              =   1.1240847312835E-03
(PID.TID 0000.0001) %MON dynstat_vvel_del2            =   2.7875044365371E-06
(PID.TID 0000.0001) %MON dynstat_wvel_max             =   3.0360778476904E-03
(PID.TID 0000.0001) %MON dynstat_wvel_min             =  -3.1268056291435E-03
(PID.TID 0000.0001) %MON dynstat_wvel_mean            =   6.7660747606617E-10
(PID.TID 0000.0001) %MON dynstat_wvel_sd              =   5.2398742910180E-05
(PID.TID 0000.0001) %MON dynstat_wvel_del2            =   1.8699702637389E-07
(PID.TID 0000.0001) %MON dynstat_theta_max            =   1.2000000000000E+00
(PID.TID 0000.0001) %MON dynstat_theta_min            =  -1.0000000000000E+00
(PID.TID 0000.0001) %MON dynstat_theta_mean           =   5.6452392058950E-01
(PID.TID 0000.0001) %MON dynstat_theta_sd             =   8.4867373499618E-01
(PID.TID 0000.0001) %MON dynstat_theta_del2           =   7.6338941469427E-06
(PID.TID 0000.0001) %MON dynstat_salt_max             =   3.4700000000000E+01
(PID.TID 0000.0001) %MON dynstat_salt_min             =   3.4000000000000E+01
(PID.TID 0000.0001) %MON dynstat_salt_mean            =   3.4497723685691E+01
(PID.TID 0000.0001) %MON dynstat_salt_sd              =   2.7001327717503E-01
(PID.TID 0000.0001) %MON dynstat_salt_del2            =   3.0292916477711E-06
(PID.TID 0000.0001) %MON advcfl_uvel_max              =   8.9701118615359E-03
(PID.TID 0000.0001) %MON advcfl_vvel_max              =   4.3862416982705E-03
(PID.TID 0000.0001) %MON advcfl_wvel_max              =   1.5634028145718E-02
(PID.TID 0000.0001) %MON advcfl_W_hf_max              =   1.5634028145718E-02
(PID.TID 0000.0001) %MON pe_b_mean                    =  -6.8040410496008E-01
(PID.TID 0000.0001) %MON ke_max                       =   3.8445107542312E-03
(PID.TID 0000.0001) %MON ke_mean                      =   4.1762888863255E-06
(PID.TID 0000.0001) %MON ke_vol                       =   4.6183377130451E+12
(PID.TID 0000.0001) // =======================================================
(PID.TID 0000.0001) // End MONITOR dynamic field statistics
(PID.TID 0000.0001) // =======================================================
(PID.TID 0000.0001) // =======================================================
(PID.TID 0000.0001) // Begin OBCS MONITOR field statistics
(PID.TID 0000.0001) // =======================================================
(PID.TID 0000.0001) %MON obc_N_vVel_max               =   1.4763258222583E-07
(PID.TID 0000.0001) %MON obc_N_vVel_min               =   1.4763258222582E-07
(PID.TID 0000.0001) %MON obc_N_vVel_mean              =   1.4763258222583E-07
(PID.TID 0000.0001) %MON obc_N_vVel_sd                =  -1.1201824854138E-27
(PID.TID 0000.0001) %MON obc_N_vVel_Int               =   9.7437504269046E+00
(PID.TID 0000.0001) // =======================================================
(PID.TID 0000.0001) // End OBCS MONITOR field statistics
(PID.TID 0000.0001) // =======================================================
 cg2d: Sum(rhs),rhsMax =   3.00240961930540E+00  4.53033279990586E+02
(PID.TID 0000.0001)      cg2d_init_res =   8.15838550602214E-06
(PID.TID 0000.0001)      cg2d_iters(min,last) =      -1      80
(PID.TID 0000.0001)      cg2d_last_res =   9.71611794414851E-12
(PID.TID 0000.0001) // =======================================================
(PID.TID 0000.0001) // Begin MONITOR dynamic field statistics
(PID.TID 0000.0001) // =======================================================
(PID.TID 0000.0001) %MON time_tsnumber                =                  1690
(PID.TID 0000.0001) %MON time_secondsf                =   1.6900000000000E+05
(PID.TID 0000.0001) %MON dynstat_eta_max              =   5.8003803659707E+00
(PID.TID 0000.0001) %MON dynstat_eta_min              =  -1.4163318968593E+01
(PID.TID 0000.0001) %MON dynstat_eta_mean             =  -2.5188731068689E+00
(PID.TID 0000.0001) %MON dynstat_eta_sd               =   4.9395777193309E+00
(PID.TID 0000.0001) %MON dynstat_eta_del2             =   1.9060324983348E-01
(PID.TID 0000.0001) %MON dynstat_uvel_max             =   2.0091899100265E-02
(PID.TID 0000.0001) %MON dynstat_uvel_min             =  -8.9845595480551E-02
(PID.TID 0000.0001) %MON dynstat_uvel_mean            =   9.4886506764007E-09
(PID.TID 0000.0001) %MON dynstat_uvel_sd              =   2.6928548006989E-03
(PID.TID 0000.0001) %MON dynstat_uvel_del2            =   4.3674288473668E-06
(PID.TID 0000.0001) %MON dynstat_vvel_max             =   4.3903444199831E-02
(PID.TID 0000.0001) %MON dynstat_vvel_min             =  -2.9979023643456E-02
(PID.TID 0000.0001) %MON dynstat_vvel_mean            =   2.2410681894786E-07
(PID.TID 0000.0001) %MON dynstat_vvel_sd              =   1.1260376677578E-03
(PID.TID 0000.0001) %MON dynstat_vvel_del2            =   2.7917160601943E-06
(PID.TID 0000.0001) %MON dynstat_wvel_max             =   3.0393194494622E-03
(PID.TID 0000.0001) %MON dynstat_wvel_min             =  -3.1253649430075E-03
(PID.TID 0000.0001) %MON dynstat_wvel_mean            =   6.7633606711212E-10
(PID.TID 0000.0001) %MON dynstat_wvel_sd              =   5.2464978982989E-05
(PID.TID 0000.0001) %MON dynstat_wvel_del2            =   1.8721815571839E-07
(PID.TID 0000.0001) %MON dynstat_theta_max            =   1.2000000000000E+00
(PID.TID 0000.0001) %MON dynstat_theta_min            =  -1.0000000000000E+00
(PID.TID 0000.0001) %MON dynstat_theta_mean           =   5.6452221602703E-01
(PID.TID 0000.0001) %MON dynstat_theta_sd             =   8.4867303235997E-01
(PID.TID 0000.0001) %MON dynstat_theta_del2           =   7.6449719406421E-06
(PID.TID 0000.0001) %MON dynstat_salt_max             =   3.4700000000000E+01
(PID.TID 0000.0001) %MON dynstat_salt_min             =   3.4000000000000E+01
(PID.TID 0000.0001) %MON dynstat_salt_mean            =   3.4497723003851E+01
(PID.TID 0000.0001) %MON dynstat_salt_sd              =   2.7001301966830E-01
(PID.TID 0000.0001) %MON dynstat_salt_del2            =   3.0337167348755E-06
(PID.TID 0000.0001) %MON advcfl_uvel_max              =   8.9845595480551E-03
(PID.TID 0000.0001) %MON advcfl_vvel_max              =   4.3903444199831E-03
(PID.TID 0000.0001) %MON advcfl_wvel_max              =   1.5626824715037E-02
(PID.TID 0000.0001) %MON advcfl_W_hf_max              =   1.5626824715037E-02
(PID.TID 0000.0001) %MON pe_b_mean                    =  -6.8039950713352E-01
(PID.TID 0000.0001) %MON ke_max                       =   3.8567592627463E-03
(PID.TID 0000.0001) %MON ke_mean                      =   4.1915379854865E-06
(PID.TID 0000.0001) %MON ke_vol                       =   4.6183378033325E+12
(PID.TID 0000.0001) // =======================================================
(PID.TID 0000.0001) // End MONITOR dynamic field statistics
(PID.TID 0000.0001) // =======================================================
(PID.TID 0000.0001) // =======================================================
(PID.TID 0000.0001) // Begin OBCS MONITOR field statistics
(PID.TID 0000.0001) // =======================================================
(PID.TID 0000.0001) %MON obc_N_vVel_max               =   1.4874642767035E-07
(PID.TID 0000.0001) %MON obc_N_vVel_min               =   1.4874642767035E-07
(PID.TID 0000.0001) %MON obc_N_vVel_mean              =   1.4874642767035E-07
(PID.TID 0000.0001) %MON obc_N_vVel_sd                =  -9.0245687557284E-28
(PID.TID 0000.0001) %MON obc_N_vVel_Int               =   9.8172642262428E+00
(PID.TID 0000.0001) // =======================================================
(PID.TID 0000.0001) // End OBCS MONITOR field statistics
(PID.TID 0000.0001) // =======================================================
 cg2d: Sum(rhs),rhsMax =   3.00239163222810E+00  4.53033252657640E+02
(PID.TID 0000.0001)      cg2d_init_res =   8.16893809821116E-06
(PID.TID 0000.0001)      cg2d_iters(min,last) =      -1      80
(PID.TID 0000.0001)      cg2d_last_res =   9.73134480530671E-12
(PID.TID 0000.0001) // =======================================================
(PID.TID 0000.0001) // Begin MONITOR dynamic field statistics
(PID.TID 0000.0001) // =======================================================
(PID.TID 0000.0001) %MON time_tsnumber                =                  1691
(PID.TID 0000.0001) %MON time_secondsf                =   1.6910000000000E+05
(PID.TID 0000.0001) %MON dynstat_eta_max              =   5.8003842143534E+00
(PID.TID 0000.0001) %MON dynstat_eta_min              =  -1.4163315104666E+01
(PID.TID 0000.0001) %MON dynstat_eta_mean             =  -2.5188578646303E+00
(PID.TID 0000.0001) %MON dynstat_eta_sd               =   4.9395732819290E+00
(PID.TID 0000.0001) %MON dynstat_eta_del2             =   1.9060329379722E-01
(PID.TID 0000.0001) %MON dynstat_uvel_max             =   2.0124830917986E-02
(PID.TID 0000.0001) %MON dynstat_uvel_min             =  -8.9990108167338E-02
(PID.TID 0000.0001) %MON dynstat_uvel_mean            =   9.5086085227190E-09
(PID.TID 0000.0001) %MON dynstat_uvel_sd              =   2.6978040120126E-03
(PID.TID 0000.0001) %MON dynstat_uvel_del2            =   4.3764497588295E-06
(PID.TID 0000.0001) %MON dynstat_vvel_max             =   4.3944451744299E-02
(PID.TID 0000.0001) %MON dynstat_vvel_min             =  -3.0043736762288E-02
(PID.TID 0000.0001) %MON dynstat_vvel_mean            =   2.2511025176492E-07
(PID.TID 0000.0001) %MON dynstat_vvel_sd              =   1.1279933404769E-03
(PID.TID 0000.0001) %MON dynstat_vvel_del2            =   2.7959317571554E-06
(PID.TID 0000.0001) %MON dynstat_wvel_max             =   3.0425572410068E-03
(PID.TID 0000.0001) %MON dynstat_wvel_min             =  -3.1239108482691E-03
(PID.TID 0000.0001) %MON dynstat_wvel_mean            =   6.7599424026371E-10
(PID.TID 0000.0001) %MON dynstat_wvel_sd              =   5.2531137113942E-05
(PID.TID 0000.0001) %MON dynstat_wvel_del2            =   1.8743936150281E-07
(PID.TID 0000.0001) %MON dynstat_theta_max            =   1.2000000000000E+00
(PID.TID 0000.0001) %MON dynstat_theta_min            =  -1.0000000000000E+00
(PID.TID 0000.0001) %MON dynstat_theta_mean           =   5.6452050898823E-01
(PID.TID 0000.0001) %MON dynstat_theta_sd             =   8.4867232899238E-01
(PID.TID 0000.0001) %MON dynstat_theta_del2           =   7.6560577978743E-06
(PID.TID 0000.0001) %MON dynstat_salt_max             =   3.4700000000000E+01
(PID.TID 0000.0001) %MON dynstat_salt_min             =   3.4000000000000E+01
(PID.TID 0000.0001) %MON dynstat_salt_mean            =   3.4497722321020E+01
(PID.TID 0000.0001) %MON dynstat_salt_sd              =   2.7001276193161E-01
(PID.TID 0000.0001) %MON dynstat_salt_del2            =   3.0381452428373E-06
(PID.TID 0000.0001) %MON advcfl_uvel_max              =   8.9990108167338E-03
(PID.TID 0000.0001) %MON advcfl_vvel_max              =   4.3944451744299E-03
(PID.TID 0000.0001) %MON advcfl_wvel_max              =   1.5619554241345E-02
(PID.TID 0000.0001) %MON advcfl_W_hf_max              =   1.5619554241345E-02
(PID.TID 0000.0001) %MON pe_b_mean                    =  -6.8039490276151E-01
(PID.TID 0000.0001) %MON ke_max                       =   3.8690241496544E-03
(PID.TID 0000.0001) %MON ke_mean                      =   4.2068309875093E-06
(PID.TID 0000.0001) %MON ke_vol                       =   4.6183378937452E+12
(PID.TID 0000.0001) // =======================================================
(PID.TID 0000.0001) // End MONITOR dynamic field statistics
(PID.TID 0000.0001) // =======================================================
(PID.TID 0000.0001) // =======================================================
(PID.TID 0000.0001) // Begin OBCS MONITOR field statistics
(PID.TID 0000.0001) // =======================================================
(PID.TID 0000.0001) %MON obc_N_vVel_max               =   1.4972138241409E-07
(PID.TID 0000.0001) %MON obc_N_vVel_min               =   1.4972138241408E-07
(PID.TID 0000.0001) %MON obc_N_vVel_mean              =   1.4972138241408E-07
(PID.TID 0000.0001) %MON obc_N_vVel_sd                =   2.6763514379481E-14
(PID.TID 0000.0001) %MON obc_N_vVel_Int               =   9.8816112393296E+00
(PID.TID 0000.0001) // =======================================================
(PID.TID 0000.0001) // End OBCS MONITOR field statistics
(PID.TID 0000.0001) // =======================================================
 cg2d: Sum(rhs),rhsMax =   3.00237361990544E+00  4.53033225279519E+02
(PID.TID 0000.0001)      cg2d_init_res =   8.17949604991782E-06
(PID.TID 0000.0001)      cg2d_iters(min,last) =      -1      80
(PID.TID 0000.0001)      cg2d_last_res =   9.74651773550054E-12
(PID.TID 0000.0001) // =======================================================
(PID.TID 0000.0001) // Begin MONITOR dynamic field statistics
(PID.TID 0000.0001) // =======================================================
(PID.TID 0000.0001) %MON time_tsnumber                =                  1692
(PID.TID 0000.0001) %MON time_secondsf                =   1.6920000000000E+05
(PID.TID 0000.0001) %MON dynstat_eta_max              =   5.8003880657325E+00
(PID.TID 0000.0001) %MON dynstat_eta_min              =  -1.4163311235782E+01
(PID.TID 0000.0001) %MON dynstat_eta_mean             =  -2.5188426009628E+00
(PID.TID 0000.0001) %MON dynstat_eta_sd               =   4.9395688378823E+00
(PID.TID 0000.0001) %MON dynstat_eta_del2             =   1.9060333780884E-01
(PID.TID 0000.0001) %MON dynstat_uvel_max             =   2.0157762683216E-02
(PID.TID 0000.0001) %MON dynstat_uvel_min             =  -9.0134655783793E-02
(PID.TID 0000.0001) %MON dynstat_uvel_mean            =   9.5289146999798E-09
(PID.TID 0000.0001) %MON dynstat_uvel_sd              =   2.7027581340578E-03
(PID.TID 0000.0001) %MON dynstat_uvel_del2            =   4.3854838070511E-06
(PID.TID 0000.0001) %MON dynstat_vvel_max             =   4.3985439578566E-02
(PID.TID 0000.0001) %MON dynstat_vvel_min             =  -3.0108473463411E-02
(PID.TID 0000.0001) %MON dynstat_vvel_mean            =   2.2595023871043E-07
(PID.TID 0000.0001) %MON dynstat_vvel_sd              =   1.1299517398606E-03
(PID.TID 0000.0001) %MON dynstat_vvel_del2            =   2.8001514759109E-06
(PID.TID 0000.0001) %MON dynstat_wvel_max             =   3.0457912109909E-03
(PID.TID 0000.0001) %MON dynstat_wvel_min             =  -3.1224430521697E-03
(PID.TID 0000.0001) %MON dynstat_wvel_mean            =   6.7561307489398E-10
(PID.TID 0000.0001) %MON dynstat_wvel_sd              =   5.2597165069531E-05
(PID.TID 0000.0001) %MON dynstat_wvel_del2            =   1.8766045471676E-07
(PID.TID 0000.0001) %MON dynstat_theta_max            =   1.2000000000000E+00
(PID.TID 0000.0001) %MON dynstat_theta_min            =  -1.0000000000000E+00
(PID.TID 0000.0001) %MON dynstat_theta_mean           =   5.6451879947077E-01
(PID.TID 0000.0001) %MON dynstat_theta_sd             =   8.4867162489548E-01
(PID.TID 0000.0001) %MON dynstat_theta_del2           =   7.6671520392391E-06
(PID.TID 0000.0001) %MON dynstat_salt_max             =   3.4700000000000E+01
(PID.TID 0000.0001) %MON dynstat_salt_min             =   3.4000000000000E+01
(PID.TID 0000.0001) %MON dynstat_salt_mean            =   3.4497721637198E+01
(PID.TID 0000.0001) %MON dynstat_salt_sd              =   2.7001250396582E-01
(PID.TID 0000.0001) %MON dynstat_salt_del2            =   3.0425771672968E-06
(PID.TID 0000.0001) %MON advcfl_uvel_max              =   9.0134655783793E-03
(PID.TID 0000.0001) %MON advcfl_vvel_max              =   4.3985439578566E-03
(PID.TID 0000.0001) %MON advcfl_wvel_max              =   1.5612215260848E-02
(PID.TID 0000.0001) %MON advcfl_W_hf_max              =   1.5612215260848E-02
(PID.TID 0000.0001) %MON pe_b_mean                    =  -6.8039029180525E-01
(PID.TID 0000.0001) %MON ke_max                       =   3.8813053976113E-03
(PID.TID 0000.0001) %MON ke_mean                      =   4.2221679521995E-06
(PID.TID 0000.0001) %MON ke_vol                       =   4.6183379842841E+12
(PID.TID 0000.0001) // =======================================================
(PID.TID 0000.0001) // End MONITOR dynamic field statistics
(PID.TID 0000.0001) // =======================================================
(PID.TID 0000.0001) // =======================================================
(PID.TID 0000.0001) // Begin OBCS MONITOR field statistics
(PID.TID 0000.0001) // =======================================================
(PID.TID 0000.0001) %MON obc_N_vVel_max               =   1.5054788738391E-07
(PID.TID 0000.0001) %MON obc_N_vVel_min               =   1.5054788738391E-07
(PID.TID 0000.0001) %MON obc_N_vVel_mean              =   1.5054788738391E-07
(PID.TID 0000.0001) %MON obc_N_vVel_sd                =  -6.0268973158885E-28
(PID.TID 0000.0001) %MON obc_N_vVel_Int               =   9.9361605673381E+00
(PID.TID 0000.0001) // =======================================================
(PID.TID 0000.0001) // End OBCS MONITOR field statistics
(PID.TID 0000.0001) // =======================================================
 cg2d: Sum(rhs),rhsMax =   3.00235558212276E+00  4.53033197855540E+02
(PID.TID 0000.0001)      cg2d_init_res =   8.19006563150555E-06
(PID.TID 0000.0001)      cg2d_iters(min,last) =      -1      80
(PID.TID 0000.0001)      cg2d_last_res =   9.76179277620212E-12
(PID.TID 0000.0001) // =======================================================
(PID.TID 0000.0001) // Begin MONITOR dynamic field statistics
(PID.TID 0000.0001) // =======================================================
(PID.TID 0000.0001) %MON time_tsnumber                =                  1693
(PID.TID 0000.0001) %MON time_secondsf                =   1.6930000000000E+05
(PID.TID 0000.0001) %MON dynstat_eta_max              =   5.8003919206141E+00
(PID.TID 0000.0001) %MON dynstat_eta_min              =  -1.4163307361630E+01
(PID.TID 0000.0001) %MON dynstat_eta_mean             =  -2.5188273156824E+00
(PID.TID 0000.0001) %MON dynstat_eta_sd               =   4.9395643871284E+00
(PID.TID 0000.0001) %MON dynstat_eta_del2             =   1.9060338186820E-01
(PID.TID 0000.0001) %MON dynstat_uvel_max             =   2.0190694173021E-02
(PID.TID 0000.0001) %MON dynstat_uvel_min             =  -9.0279237424497E-02
(PID.TID 0000.0001) %MON dynstat_uvel_mean            =   9.5493922545236E-09
(PID.TID 0000.0001) %MON dynstat_uvel_sd              =   2.7077171603651E-03
(PID.TID 0000.0001) %MON dynstat_uvel_del2            =   4.3945309821010E-06
(PID.TID 0000.0001) %MON dynstat_vvel_max             =   4.4026407664481E-02
(PID.TID 0000.0001) %MON dynstat_vvel_min             =  -3.0173233091009E-02
(PID.TID 0000.0001) %MON dynstat_vvel_mean            =   2.2662385269836E-07
(PID.TID 0000.0001) %MON dynstat_vvel_sd              =   1.1319128584798E-03
(PID.TID 0000.0001) %MON dynstat_vvel_del2            =   2.8043751725048E-06
(PID.TID 0000.0001) %MON dynstat_wvel_max             =   3.0490213481948E-03
(PID.TID 0000.0001) %MON dynstat_wvel_min             =  -3.1209618194559E-03
(PID.TID 0000.0001) %MON dynstat_wvel_mean            =   6.7522295370389E-10
(PID.TID 0000.0001) %MON dynstat_wvel_sd              =   5.2663018811374E-05
(PID.TID 0000.0001) %MON dynstat_wvel_del2            =   1.8788126661793E-07
(PID.TID 0000.0001) %MON dynstat_theta_max            =   1.2000000000000E+00
(PID.TID 0000.0001) %MON dynstat_theta_min            =  -1.0000000000000E+00
(PID.TID 0000.0001) %MON dynstat_theta_mean           =   5.6451708747243E-01
(PID.TID 0000.0001) %MON dynstat_theta_sd             =   8.4867092007150E-01
(PID.TID 0000.0001) %MON dynstat_theta_del2           =   7.6782547617959E-06
(PID.TID 0000.0001) %MON dynstat_salt_max             =   3.4700000000000E+01
(PID.TID 0000.0001) %MON dynstat_salt_min             =   3.4000000000000E+01
(PID.TID 0000.0001) %MON dynstat_salt_mean            =   3.4497720952382E+01
(PID.TID 0000.0001) %MON dynstat_salt_sd              =   2.7001224577184E-01
(PID.TID 0000.0001) %MON dynstat_salt_del2            =   3.0470125548710E-06
(PID.TID 0000.0001) %MON advcfl_uvel_max              =   9.0279237424497E-03
(PID.TID 0000.0001) %MON advcfl_vvel_max              =   4.4026407664481E-03
(PID.TID 0000.0001) %MON advcfl_wvel_max              =   1.5604809097280E-02
(PID.TID 0000.0001) %MON advcfl_W_hf_max              =   1.5604809097280E-02
(PID.TID 0000.0001) %MON pe_b_mean                    =  -6.8038567422550E-01
(PID.TID 0000.0001) %MON ke_max                       =   3.8936029905693E-03
(PID.TID 0000.0001) %MON ke_mean                      =   4.2375489415908E-06
(PID.TID 0000.0001) %MON ke_vol                       =   4.6183380749503E+12
(PID.TID 0000.0001) // =======================================================
(PID.TID 0000.0001) // End MONITOR dynamic field statistics
(PID.TID 0000.0001) // =======================================================
(PID.TID 0000.0001) // =======================================================
(PID.TID 0000.0001) // Begin OBCS MONITOR field statistics
(PID.TID 0000.0001) // =======================================================
(PID.TID 0000.0001) %MON obc_N_vVel_max               =   1.5122041949252E-07
(PID.TID 0000.0001) %MON obc_N_vVel_min               =   1.5122041949252E-07
(PID.TID 0000.0001) %MON obc_N_vVel_mean              =   1.5122041949252E-07
(PID.TID 0000.0001) %MON obc_N_vVel_sd                =   2.7173034561618E-14
(PID.TID 0000.0001) %MON obc_N_vVel_Int               =   9.9805476865066E+00
(PID.TID 0000.0001) // =======================================================
(PID.TID 0000.0001) // End OBCS MONITOR field statistics
(PID.TID 0000.0001) // =======================================================
 cg2d: Sum(rhs),rhsMax =   3.00233751866034E+00  4.53033170385512E+02
(PID.TID 0000.0001)      cg2d_init_res =   8.20063911955730E-06
(PID.TID 0000.0001)      cg2d_iters(min,last) =      -1      80
(PID.TID 0000.0001)      cg2d_last_res =   9.77707074173048E-12
(PID.TID 0000.0001) // =======================================================
(PID.TID 0000.0001) // Begin MONITOR dynamic field statistics
(PID.TID 0000.0001) // =======================================================
(PID.TID 0000.0001) %MON time_tsnumber                =                  1694
(PID.TID 0000.0001) %MON time_secondsf                =   1.6940000000000E+05
(PID.TID 0000.0001) %MON dynstat_eta_max              =   5.8003957794839E+00
(PID.TID 0000.0001) %MON dynstat_eta_min              =  -1.4163303481913E+01
(PID.TID 0000.0001) %MON dynstat_eta_mean             =  -2.5188120086038E+00
(PID.TID 0000.0001) %MON dynstat_eta_sd               =   4.9395599296085E+00
(PID.TID 0000.0001) %MON dynstat_eta_del2             =   1.9060342597520E-01
(PID.TID 0000.0001) %MON dynstat_uvel_max             =   2.0223624699908E-02
(PID.TID 0000.0001) %MON dynstat_uvel_min             =  -9.0423852198398E-02
(PID.TID 0000.0001) %MON dynstat_uvel_mean            =   9.5698448151915E-09
(PID.TID 0000.0001) %MON dynstat_uvel_sd              =   2.7126810841656E-03
(PID.TID 0000.0001) %MON dynstat_uvel_del2            =   4.4035912776898E-06
(PID.TID 0000.0001) %MON dynstat_vvel_max             =   4.4067355963351E-02
(PID.TID 0000.0001) %MON dynstat_vvel_min             =  -3.0238014997117E-02
(PID.TID 0000.0001) %MON dynstat_vvel_mean            =   2.2713254035181E-07
(PID.TID 0000.0001) %MON dynstat_vvel_sd              =   1.1338766915992E-03
(PID.TID 0000.0001) %MON dynstat_vvel_del2            =   2.8086028102327E-06
(PID.TID 0000.0001) %MON dynstat_wvel_max             =   3.0522476414904E-03
(PID.TID 0000.0001) %MON dynstat_wvel_min             =  -3.1194673303634E-03
(PID.TID 0000.0001) %MON dynstat_wvel_mean            =   6.7485548867346E-10
(PID.TID 0000.0001) %MON dynstat_wvel_sd              =   5.2728664893297E-05
(PID.TID 0000.0001) %MON dynstat_wvel_del2            =   1.8810166256780E-07
(PID.TID 0000.0001) %MON dynstat_theta_max            =   1.2000000000000E+00
(PID.TID 0000.0001) %MON dynstat_theta_min            =  -1.0000000000000E+00
(PID.TID 0000.0001) %MON dynstat_theta_mean           =   5.6451537299107E-01
(PID.TID 0000.0001) %MON dynstat_theta_sd             =   8.4867021452251E-01
(PID.TID 0000.0001) %MON dynstat_theta_del2           =   7.6893659949089E-06
(PID.TID 0000.0001) %MON dynstat_salt_max             =   3.4700000000000E+01
(PID.TID 0000.0001) %MON dynstat_salt_min             =   3.4000000000000E+01
(PID.TID 0000.0001) %MON dynstat_salt_mean            =   3.4497720266574E+01
(PID.TID 0000.0001) %MON dynstat_salt_sd              =   2.7001198735072E-01
(PID.TID 0000.0001) %MON dynstat_salt_del2            =   3.0514514026648E-06
(PID.TID 0000.0001) %MON advcfl_uvel_max              =   9.0423852198398E-03
(PID.TID 0000.0001) %MON advcfl_vvel_max              =   4.4067355963351E-03
(PID.TID 0000.0001) %MON advcfl_wvel_max              =   1.5597336651817E-02
(PID.TID 0000.0001) %MON advcfl_W_hf_max              =   1.5597336651817E-02
(PID.TID 0000.0001) %MON pe_b_mean                    =  -6.8038104998365E-01
(PID.TID 0000.0001) %MON ke_max                       =   3.9059169136648E-03
(PID.TID 0000.0001) %MON ke_mean                      =   4.2529740198851E-06
(PID.TID 0000.0001) %MON ke_vol                       =   4.6183381657448E+12
(PID.TID 0000.0001) // =======================================================
(PID.TID 0000.0001) // End MONITOR dynamic field statistics
(PID.TID 0000.0001) // =======================================================
(PID.TID 0000.0001) // =======================================================
(PID.TID 0000.0001) // Begin OBCS MONITOR field statistics
(PID.TID 0000.0001) // =======================================================
(PID.TID 0000.0001) %MON obc_N_vVel_max               =   1.5173756555712E-07
(PID.TID 0000.0001) %MON obc_N_vVel_min               =   1.5173756555712E-07
(PID.TID 0000.0001) %MON obc_N_vVel_mean              =   1.5173756555712E-07
(PID.TID 0000.0001) %MON obc_N_vVel_sd                =   1.2306961192855E-14
(PID.TID 0000.0001) %MON obc_N_vVel_Int               =   1.0014679326770E+01
(PID.TID 0000.0001) // =======================================================
(PID.TID 0000.0001) // End OBCS MONITOR field statistics
(PID.TID 0000.0001) // =======================================================
 cg2d: Sum(rhs),rhsMax =   3.00231942929888E+00  4.53033142869730E+02
(PID.TID 0000.0001)      cg2d_init_res =   8.21121428420014E-06
(PID.TID 0000.0001)      cg2d_iters(min,last) =      -1      80
(PID.TID 0000.0001)      cg2d_last_res =   9.79239494651177E-12
(PID.TID 0000.0001) // =======================================================
(PID.TID 0000.0001) // Begin MONITOR dynamic field statistics
(PID.TID 0000.0001) // =======================================================
(PID.TID 0000.0001) %MON time_tsnumber                =                  1695
(PID.TID 0000.0001) %MON time_secondsf                =   1.6950000000000E+05
(PID.TID 0000.0001) %MON dynstat_eta_max              =   5.8003996428056E+00
(PID.TID 0000.0001) %MON dynstat_eta_min              =  -1.4163299596355E+01
(PID.TID 0000.0001) %MON dynstat_eta_mean             =  -2.5187966795447E+00
(PID.TID 0000.0001) %MON dynstat_eta_sd               =   4.9395554652677E+00
(PID.TID 0000.0001) %MON dynstat_eta_del2             =   1.9060347012975E-01
(PID.TID 0000.0001) %MON dynstat_uvel_max             =   2.0256554162122E-02
(PID.TID 0000.0001) %MON dynstat_uvel_min             =  -9.0568499212822E-02
(PID.TID 0000.0001) %MON dynstat_uvel_mean            =   9.5900862624471E-09
(PID.TID 0000.0001) %MON dynstat_uvel_sd              =   2.7176498988225E-03
(PID.TID 0000.0001) %MON dynstat_uvel_del2            =   4.4126646837793E-06
(PID.TID 0000.0001) %MON dynstat_vvel_max             =   4.4108284435854E-02
(PID.TID 0000.0001) %MON dynstat_vvel_min             =  -3.0302818527279E-02
(PID.TID 0000.0001) %MON dynstat_vvel_mean            =   2.2748206916658E-07
(PID.TID 0000.0001) %MON dynstat_vvel_sd              =   1.1358432377251E-03
(PID.TID 0000.0001) %MON dynstat_vvel_del2            =   2.8128343701107E-06
(PID.TID 0000.0001) %MON dynstat_wvel_max             =   3.0554700798735E-03
(PID.TID 0000.0001) %MON dynstat_wvel_min             =  -3.1179597939313E-03
(PID.TID 0000.0001) %MON dynstat_wvel_mean            =   6.7454053282121E-10
(PID.TID 0000.0001) %MON dynstat_wvel_sd              =   5.2794081409124E-05
(PID.TID 0000.0001) %MON dynstat_wvel_del2            =   1.8832153705031E-07
(PID.TID 0000.0001) %MON dynstat_theta_max            =   1.2000000000000E+00
(PID.TID 0000.0001) %MON dynstat_theta_min            =  -1.0000000000000E+00
(PID.TID 0000.0001) %MON dynstat_theta_mean           =   5.6451365602470E-01
(PID.TID 0000.0001) %MON dynstat_theta_sd             =   8.4866950825077E-01
(PID.TID 0000.0001) %MON dynstat_theta_del2           =   7.7004858269737E-06
(PID.TID 0000.0001) %MON dynstat_salt_max             =   3.4700000000000E+01
(PID.TID 0000.0001) %MON dynstat_salt_min             =   3.4000000000000E+01
(PID.TID 0000.0001) %MON dynstat_salt_mean            =   3.4497719579771E+01
(PID.TID 0000.0001) %MON dynstat_salt_sd              =   2.7001172870315E-01
(PID.TID 0000.0001) %MON dynstat_salt_del2            =   3.0558937327328E-06
(PID.TID 0000.0001) %MON advcfl_uvel_max              =   9.0568499212822E-03
(PID.TID 0000.0001) %MON advcfl_vvel_max              =   4.4108284435854E-03
(PID.TID 0000.0001) %MON advcfl_wvel_max              =   1.5589798969656E-02
(PID.TID 0000.0001) %MON advcfl_W_hf_max              =   1.5589798969656E-02
(PID.TID 0000.0001) %MON pe_b_mean                    =  -6.8037641904258E-01
(PID.TID 0000.0001) %MON ke_max                       =   3.9182471533683E-03
(PID.TID 0000.0001) %MON ke_mean                      =   4.2684432552429E-06
(PID.TID 0000.0001) %MON ke_vol                       =   4.6183382566689E+12
(PID.TID 0000.0001) // =======================================================
(PID.TID 0000.0001) // End MONITOR dynamic field statistics
(PID.TID 0000.0001) // =======================================================
(PID.TID 0000.0001) // =======================================================
(PID.TID 0000.0001) // Begin OBCS MONITOR field statistics
(PID.TID 0000.0001) // =======================================================
(PID.TID 0000.0001) %MON obc_N_vVel_max               =   1.5210202805684E-07
(PID.TID 0000.0001) %MON obc_N_vVel_min               =   1.5210202805684E-07
(PID.TID 0000.0001) %MON obc_N_vVel_mean              =   1.5210202805684E-07
(PID.TID 0000.0001) %MON obc_N_vVel_sd                =   3.7682219008411E-14
(PID.TID 0000.0001) %MON obc_N_vVel_Int               =   1.0038733851751E+01
(PID.TID 0000.0001) // =======================================================
(PID.TID 0000.0001) // End OBCS MONITOR field statistics
(PID.TID 0000.0001) // =======================================================
 cg2d: Sum(rhs),rhsMax =   3.00230131382451E+00  4.53033115308986E+02
(PID.TID 0000.0001)      cg2d_init_res =   8.22178635541267E-06
(PID.TID 0000.0001)      cg2d_iters(min,last) =      -1      80
(PID.TID 0000.0001)      cg2d_last_res =   9.80774365872771E-12
(PID.TID 0000.0001) // =======================================================
(PID.TID 0000.0001) // Begin MONITOR dynamic field statistics
(PID.TID 0000.0001) // =======================================================
(PID.TID 0000.0001) %MON time_tsnumber                =                  1696
(PID.TID 0000.0001) %MON time_secondsf                =   1.6960000000000E+05
(PID.TID 0000.0001) %MON dynstat_eta_max              =   5.8004035110164E+00
(PID.TID 0000.0001) %MON dynstat_eta_min              =  -1.4163295704705E+01
(PID.TID 0000.0001) %MON dynstat_eta_mean             =  -2.5187813283300E+00
(PID.TID 0000.0001) %MON dynstat_eta_sd               =   4.9395509940567E+00
(PID.TID 0000.0001) %MON dynstat_eta_del2             =   1.9060351433172E-01
(PID.TID 0000.0001) %MON dynstat_uvel_max             =   2.0289482288355E-02
(PID.TID 0000.0001) %MON dynstat_uvel_min             =  -9.0713177574607E-02
(PID.TID 0000.0001) %MON dynstat_uvel_mean            =   9.6099277416857E-09
(PID.TID 0000.0001) %MON dynstat_uvel_sd              =   2.7226235976676E-03
(PID.TID 0000.0001) %MON dynstat_uvel_del2            =   4.4217511899612E-06
(PID.TID 0000.0001) %MON dynstat_vvel_max             =   4.4149193042121E-02
(PID.TID 0000.0001) %MON dynstat_vvel_min             =  -3.0367643015772E-02
(PID.TID 0000.0001) %MON dynstat_vvel_mean            =   2.2768233854076E-07
(PID.TID 0000.0001) %MON dynstat_vvel_sd              =   1.1378124988034E-03
(PID.TID 0000.0001) %MON dynstat_vvel_del2            =   2.8170698468378E-06
(PID.TID 0000.0001) %MON dynstat_wvel_max             =   3.0586886524259E-03
(PID.TID 0000.0001) %MON dynstat_wvel_min             =  -3.1164394189556E-03
(PID.TID 0000.0001) %MON dynstat_wvel_mean            =   6.7430653665378E-10
(PID.TID 0000.0001) %MON dynstat_wvel_sd              =   5.2859259311847E-05
(PID.TID 0000.0001) %MON dynstat_wvel_del2            =   1.8854082583781E-07
(PID.TID 0000.0001) %MON dynstat_theta_max            =   1.2000000000000E+00
(PID.TID 0000.0001) %MON dynstat_theta_min            =  -1.0000000000000E+00
(PID.TID 0000.0001) %MON dynstat_theta_mean           =   5.6451193657145E-01
(PID.TID 0000.0001) %MON dynstat_theta_sd             =   8.4866880125824E-01
(PID.TID 0000.0001) %MON dynstat_theta_del2           =   7.7116143279039E-06
(PID.TID 0000.0001) %MON dynstat_salt_max             =   3.4700000000000E+01
(PID.TID 0000.0001) %MON dynstat_salt_min             =   3.4000000000000E+01
(PID.TID 0000.0001) %MON dynstat_salt_mean            =   3.4497718891973E+01
(PID.TID 0000.0001) %MON dynstat_salt_sd              =   2.7001146983008E-01
(PID.TID 0000.0001) %MON dynstat_salt_del2            =   3.0603395624155E-06
(PID.TID 0000.0001) %MON advcfl_uvel_max              =   9.0713177574607E-03
(PID.TID 0000.0001) %MON advcfl_vvel_max              =   4.4149193042121E-03
(PID.TID 0000.0001) %MON advcfl_wvel_max              =   1.5582197094778E-02
(PID.TID 0000.0001) %MON advcfl_W_hf_max              =   1.5582197094778E-02
(PID.TID 0000.0001) %MON pe_b_mean                    =  -6.8037178136750E-01
(PID.TID 0000.0001) %MON ke_max                       =   3.9305936974164E-03
(PID.TID 0000.0001) %MON ke_mean                      =   4.2839567196069E-06
(PID.TID 0000.0001) %MON ke_vol                       =   4.6183383477235E+12
(PID.TID 0000.0001) // =======================================================
(PID.TID 0000.0001) // End MONITOR dynamic field statistics
(PID.TID 0000.0001) // =======================================================
(PID.TID 0000.0001) // =======================================================
(PID.TID 0000.0001) // Begin OBCS MONITOR field statistics
(PID.TID 0000.0001) // =======================================================
(PID.TID 0000.0001) %MON obc_N_vVel_max               =   1.5232049392820E-07
(PID.TID 0000.0001) %MON obc_N_vVel_min               =   1.5232049392820E-07
(PID.TID 0000.0001) %MON obc_N_vVel_mean              =   1.5232049392820E-07
(PID.TID 0000.0001) %MON obc_N_vVel_sd                =   2.8366143962926E-14
(PID.TID 0000.0001) %MON obc_N_vVel_Int               =   1.0053152599261E+01
(PID.TID 0000.0001) // =======================================================
(PID.TID 0000.0001) // End OBCS MONITOR field statistics
(PID.TID 0000.0001) // =======================================================
 cg2d: Sum(rhs),rhsMax =   3.00228317203364E+00  4.53033087704591E+02
(PID.TID 0000.0001)      cg2d_init_res =   8.23235368692175E-06
(PID.TID 0000.0001)      cg2d_iters(min,last) =      -1      80
(PID.TID 0000.0001)      cg2d_last_res =   9.82312292137910E-12
(PID.TID 0000.0001) // =======================================================
(PID.TID 0000.0001) // Begin MONITOR dynamic field statistics
(PID.TID 0000.0001) // =======================================================
(PID.TID 0000.0001) %MON time_tsnumber                =                  1697
(PID.TID 0000.0001) %MON time_secondsf                =   1.6970000000000E+05
(PID.TID 0000.0001) %MON dynstat_eta_max              =   5.8004073845270E+00
(PID.TID 0000.0001) %MON dynstat_eta_min              =  -1.4163291806725E+01
(PID.TID 0000.0001) %MON dynstat_eta_mean             =  -2.5187659547962E+00
(PID.TID 0000.0001) %MON dynstat_eta_sd               =   4.9395465159334E+00
(PID.TID 0000.0001) %MON dynstat_eta_del2             =   1.9060355858101E-01
(PID.TID 0000.0001) %MON dynstat_uvel_max             =   2.0322408865352E-02
(PID.TID 0000.0001) %MON dynstat_uvel_min             =  -9.0857886392701E-02
(PID.TID 0000.0001) %MON dynstat_uvel_mean            =   9.6291903378603E-09
(PID.TID 0000.0001) %MON dynstat_uvel_sd              =   2.7276021740033E-03
(PID.TID 0000.0001) %MON dynstat_uvel_del2            =   4.4308507856758E-06
(PID.TID 0000.0001) %MON dynstat_vvel_max             =   4.4190081741585E-02
(PID.TID 0000.0001) %MON dynstat_vvel_min             =  -3.0432487790346E-02
(PID.TID 0000.0001) %MON dynstat_vvel_mean            =   2.2774709798217E-07
(PID.TID 0000.0001) %MON dynstat_vvel_sd              =   1.1397844802933E-03
(PID.TID 0000.0001) %MON dynstat_vvel_del2            =   2.8213092489314E-06
(PID.TID 0000.0001) %MON dynstat_wvel_max             =   3.0619033483273E-03
(PID.TID 0000.0001) %MON dynstat_wvel_min             =  -3.1149064133467E-03
(PID.TID 0000.0001) %MON dynstat_wvel_mean            =   6.7417930232048E-10
(PID.TID 0000.0001) %MON dynstat_wvel_sd              =   5.2924202798707E-05
(PID.TID 0000.0001) %MON dynstat_wvel_del2            =   1.8875950922562E-07
(PID.TID 0000.0001) %MON dynstat_theta_max            =   1.2000000000000E+00
(PID.TID 0000.0001) %MON dynstat_theta_min            =  -1.0000000000000E+00
(PID.TID 0000.0001) %MON dynstat_theta_mean           =   5.6451021462956E-01
(PID.TID 0000.0001) %MON dynstat_theta_sd             =   8.4866809354660E-01
(PID.TID 0000.0001) %MON dynstat_theta_del2           =   7.7227512493244E-06
(PID.TID 0000.0001) %MON dynstat_salt_max             =   3.4700000000000E+01
(PID.TID 0000.0001) %MON dynstat_salt_min             =   3.4000000000000E+01
(PID.TID 0000.0001) %MON dynstat_salt_mean            =   3.4497718203179E+01
(PID.TID 0000.0001) %MON dynstat_salt_sd              =   2.7001121073222E-01
(PID.TID 0000.0001) %MON dynstat_salt_del2            =   3.0647887936240E-06
(PID.TID 0000.0001) %MON advcfl_uvel_max              =   9.0857886392701E-03
(PID.TID 0000.0001) %MON advcfl_vvel_max              =   4.4190081741585E-03
(PID.TID 0000.0001) %MON advcfl_wvel_max              =   1.5574532066734E-02
(PID.TID 0000.0001) %MON advcfl_W_hf_max              =   1.5574532066734E-02
(PID.TID 0000.0001) %MON pe_b_mean                    =  -6.8036713692675E-01
(PID.TID 0000.0001) %MON ke_max                       =   3.9429565347800E-03
(PID.TID 0000.0001) %MON ke_mean                      =   4.2995144888239E-06
(PID.TID 0000.0001) %MON ke_vol                       =   4.6183384389097E+12
(PID.TID 0000.0001) // =======================================================
(PID.TID 0000.0001) // End MONITOR dynamic field statistics
(PID.TID 0000.0001) // =======================================================
(PID.TID 0000.0001) // =======================================================
(PID.TID 0000.0001) // Begin OBCS MONITOR field statistics
(PID.TID 0000.0001) // =======================================================
(PID.TID 0000.0001) %MON obc_N_vVel_max               =   1.5240346453310E-07
(PID.TID 0000.0001) %MON obc_N_vVel_min               =   1.5240346453309E-07
(PID.TID 0000.0001) %MON obc_N_vVel_mean              =   1.5240346453309E-07
(PID.TID 0000.0001) %MON obc_N_vVel_sd                =   3.6317701380037E-14
(PID.TID 0000.0001) %MON obc_N_vVel_Int               =   1.0058628659184E+01
(PID.TID 0000.0001) // =======================================================
(PID.TID 0000.0001) // End OBCS MONITOR field statistics
(PID.TID 0000.0001) // =======================================================
 cg2d: Sum(rhs),rhsMax =   3.00226500373857E+00  4.53033060058298E+02
(PID.TID 0000.0001)      cg2d_init_res =   8.24291298375984E-06
(PID.TID 0000.0001)      cg2d_iters(min,last) =      -1      80
(PID.TID 0000.0001)      cg2d_last_res =   9.83850437193960E-12
(PID.TID 0000.0001) // =======================================================
(PID.TID 0000.0001) // Begin MONITOR dynamic field statistics
(PID.TID 0000.0001) // =======================================================
(PID.TID 0000.0001) %MON time_tsnumber                =                  1698
(PID.TID 0000.0001) %MON time_secondsf                =   1.6980000000000E+05
(PID.TID 0000.0001) %MON dynstat_eta_max              =   5.8004112636932E+00
(PID.TID 0000.0001) %MON dynstat_eta_min              =  -1.4163287902235E+01
(PID.TID 0000.0001) %MON dynstat_eta_mean             =  -2.5187505587956E+00
(PID.TID 0000.0001) %MON dynstat_eta_sd               =   4.9395420308629E+00
(PID.TID 0000.0001) %MON dynstat_eta_del2             =   1.9060360287750E-01
(PID.TID 0000.0001) %MON dynstat_uvel_max             =   2.0355333680115E-02
(PID.TID 0000.0001) %MON dynstat_uvel_min             =  -9.1002624778007E-02
(PID.TID 0000.0001) %MON dynstat_uvel_mean            =   9.6477114137663E-09
(PID.TID 0000.0001) %MON dynstat_uvel_sd              =   2.7325856210349E-03
(PID.TID 0000.0001) %MON dynstat_uvel_del2            =   4.4399634583231E-06
(PID.TID 0000.0001) %MON dynstat_vvel_max             =   4.4230950493116E-02
(PID.TID 0000.0001) %MON dynstat_vvel_min             =  -3.0497352171867E-02
(PID.TID 0000.0001) %MON dynstat_vvel_mean            =   2.2769356265462E-07
(PID.TID 0000.0001) %MON dynstat_vvel_sd              =   1.1417591912233E-03
(PID.TID 0000.0001) %MON dynstat_vvel_del2            =   2.8255525989339E-06
(PID.TID 0000.0001) %MON dynstat_wvel_max             =   3.0651141568832E-03
(PID.TID 0000.0001) %MON dynstat_wvel_min             =  -3.1133609837601E-03
(PID.TID 0000.0001) %MON dynstat_wvel_mean            =   6.7418194825716E-10
(PID.TID 0000.0001) %MON dynstat_wvel_sd              =   5.2988928938798E-05
(PID.TID 0000.0001) %MON dynstat_wvel_del2            =   1.8897761309849E-07
(PID.TID 0000.0001) %MON dynstat_theta_max            =   1.2000000000000E+00
(PID.TID 0000.0001) %MON dynstat_theta_min            =  -1.0000000000000E+00
(PID.TID 0000.0001) %MON dynstat_theta_mean           =   5.6450849019746E-01
(PID.TID 0000.0001) %MON dynstat_theta_sd             =   8.4866738511749E-01
(PID.TID 0000.0001) %MON dynstat_theta_del2           =   7.7338958407121E-06
(PID.TID 0000.0001) %MON dynstat_salt_max             =   3.4700000000000E+01
(PID.TID 0000.0001) %MON dynstat_salt_min             =   3.4000000000000E+01
(PID.TID 0000.0001) %MON dynstat_salt_mean            =   3.4497717513390E+01
(PID.TID 0000.0001) %MON dynstat_salt_sd              =   2.7001095141027E-01
(PID.TID 0000.0001) %MON dynstat_salt_del2            =   3.0692411036488E-06
(PID.TID 0000.0001) %MON advcfl_uvel_max              =   9.1002624778007E-03
(PID.TID 0000.0001) %MON advcfl_vvel_max              =   4.4230950493116E-03
(PID.TID 0000.0001) %MON advcfl_wvel_max              =   1.5566804918801E-02
(PID.TID 0000.0001) %MON advcfl_W_hf_max              =   1.5566804918801E-02
(PID.TID 0000.0001) %MON pe_b_mean                    =  -6.8036248569257E-01
(PID.TID 0000.0001) %MON ke_max                       =   3.9553356556229E-03
(PID.TID 0000.0001) %MON ke_mean                      =   4.3151166425606E-06
(PID.TID 0000.0001) %MON ke_vol                       =   4.6183385302285E+12
(PID.TID 0000.0001) // =======================================================
(PID.TID 0000.0001) // End MONITOR dynamic field statistics
(PID.TID 0000.0001) // =======================================================
(PID.TID 0000.0001) // =======================================================
(PID.TID 0000.0001) // Begin OBCS MONITOR field statistics
(PID.TID 0000.0001) // =======================================================
(PID.TID 0000.0001) %MON obc_N_vVel_max               =   1.5236491453230E-07
(PID.TID 0000.0001) %MON obc_N_vVel_min               =   1.5236491453229E-07
(PID.TID 0000.0001) %MON obc_N_vVel_mean              =   1.5236491453230E-07
(PID.TID 0000.0001) %MON obc_N_vVel_sd                =  -7.2575203280333E-28
(PID.TID 0000.0001) %MON obc_N_vVel_Int               =   1.0056084359132E+01
(PID.TID 0000.0001) // =======================================================
(PID.TID 0000.0001) // End OBCS MONITOR field statistics
(PID.TID 0000.0001) // =======================================================
 cg2d: Sum(rhs),rhsMax =   3.00224680877129E+00  4.53033032372307E+02
(PID.TID 0000.0001)      cg2d_init_res =   8.25345971108805E-06
(PID.TID 0000.0001)      cg2d_iters(min,last) =      -1      80
(PID.TID 0000.0001)      cg2d_last_res =   9.85384350680242E-12
(PID.TID 0000.0001) // =======================================================
(PID.TID 0000.0001) // Begin MONITOR dynamic field statistics
(PID.TID 0000.0001) // =======================================================
(PID.TID 0000.0001) %MON time_tsnumber                =                  1699
(PID.TID 0000.0001) %MON time_secondsf                =   1.6990000000000E+05
(PID.TID 0000.0001) %MON dynstat_eta_max              =   5.8004151488275E+00
(PID.TID 0000.0001) %MON dynstat_eta_min              =  -1.4163283991099E+01
(PID.TID 0000.0001) %MON dynstat_eta_mean             =  -2.5187351401995E+00
(PID.TID 0000.0001) %MON dynstat_eta_sd               =   4.9395375388174E+00
(PID.TID 0000.0001) %MON dynstat_eta_del2             =   1.9060364722101E-01
(PID.TID 0000.0001) %MON dynstat_uvel_max             =   2.0388256518216E-02
(PID.TID 0000.0001) %MON dynstat_uvel_min             =  -9.1147391843872E-02
(PID.TID 0000.0001) %MON dynstat_uvel_mean            =   9.6653513691391E-09
(PID.TID 0000.0001) %MON dynstat_uvel_sd              =   2.7375739317565E-03
(PID.TID 0000.0001) %MON dynstat_uvel_del2            =   4.4490891900954E-06
(PID.TID 0000.0001) %MON dynstat_vvel_max             =   4.4271799253820E-02
(PID.TID 0000.0001) %MON dynstat_vvel_min             =  -3.0562235473877E-02
(PID.TID 0000.0001) %MON dynstat_vvel_mean            =   2.2754195525697E-07
(PID.TID 0000.0001) %MON dynstat_vvel_sd              =   1.1437366441664E-03
(PID.TID 0000.0001) %MON dynstat_vvel_del2            =   2.8297999333046E-06
(PID.TID 0000.0001) %MON dynstat_wvel_max             =   3.0683210670892E-03
(PID.TID 0000.0001) %MON dynstat_wvel_min             =  -3.1118033353828E-03
(PID.TID 0000.0001) %MON dynstat_wvel_mean            =   6.7433396378305E-10
(PID.TID 0000.0001) %MON dynstat_wvel_sd              =   5.3053466626196E-05
(PID.TID 0000.0001) %MON dynstat_wvel_del2            =   1.8919520720705E-07
(PID.TID 0000.0001) %MON dynstat_theta_max            =   1.2000000000000E+00
(PID.TID 0000.0001) %MON dynstat_theta_min            =  -1.0000000000000E+00
(PID.TID 0000.0001) %MON dynstat_theta_mean           =   5.6450676327370E-01
(PID.TID 0000.0001) %MON dynstat_theta_sd             =   8.4866667596993E-01
(PID.TID 0000.0001) %MON dynstat_theta_del2           =   7.7450405479797E-06
(PID.TID 0000.0001) %MON dynstat_salt_max             =   3.4700000000000E+01
(PID.TID 0000.0001) %MON dynstat_salt_min             =   3.4000000000000E+01
(PID.TID 0000.0001) %MON dynstat_salt_mean            =   3.4497716822603E+01
(PID.TID 0000.0001) %MON dynstat_salt_sd              =   2.7001069186398E-01
(PID.TID 0000.0001) %MON dynstat_salt_del2            =   3.0736936260365E-06
(PID.TID 0000.0001) %MON advcfl_uvel_max              =   9.1147391843872E-03
(PID.TID 0000.0001) %MON advcfl_vvel_max              =   4.4271799253820E-03
(PID.TID 0000.0001) %MON advcfl_wvel_max              =   1.5559016676914E-02
(PID.TID 0000.0001) %MON advcfl_W_hf_max              =   1.5559016676914E-02
(PID.TID 0000.0001) %MON pe_b_mean                    =  -6.8035782764170E-01
(PID.TID 0000.0001) %MON ke_max                       =   3.9677310511099E-03
(PID.TID 0000.0001) %MON ke_mean                      =   4.3307632640016E-06
(PID.TID 0000.0001) %MON ke_vol                       =   4.6183386216808E+12
(PID.TID 0000.0001) // =======================================================
(PID.TID 0000.0001) // End MONITOR dynamic field statistics
(PID.TID 0000.0001) // =======================================================
(PID.TID 0000.0001) // =======================================================
(PID.TID 0000.0001) // Begin OBCS MONITOR field statistics
(PID.TID 0000.0001) // =======================================================
(PID.TID 0000.0001) %MON obc_N_vVel_max               =   1.5222194601060E-07
(PID.TID 0000.0001) %MON obc_N_vVel_min               =   1.5222194601060E-07
(PID.TID 0000.0001) %MON obc_N_vVel_mean              =   1.5222194601060E-07
(PID.TID 0000.0001) %MON obc_N_vVel_sd                =  -5.0802642296233E-28
(PID.TID 0000.0001) %MON obc_N_vVel_Int               =   1.0046648436699E+01
(PID.TID 0000.0001) // =======================================================
(PID.TID 0000.0001) // End OBCS MONITOR field statistics
(PID.TID 0000.0001) // =======================================================
 cg2d: Sum(rhs),rhsMax =   3.00222858698736E+00  4.53033004649217E+02
(PID.TID 0000.0001)      cg2d_init_res =   8.26383253053803E-06
(PID.TID 0000.0001)      cg2d_iters(min,last) =      -1      80
(PID.TID 0000.0001)      cg2d_last_res =   9.86903933393634E-12
(PID.TID 0000.0001) // =======================================================
(PID.TID 0000.0001) // Begin MONITOR dynamic field statistics
(PID.TID 0000.0001) // =======================================================
(PID.TID 0000.0001) %MON time_tsnumber                =                  1700
(PID.TID 0000.0001) %MON time_secondsf                =   1.7000000000000E+05
(PID.TID 0000.0001) %MON dynstat_eta_max              =   5.8004190402048E+00
(PID.TID 0000.0001) %MON dynstat_eta_min              =  -1.4163280073215E+01
(PID.TID 0000.0001) %MON dynstat_eta_mean             =  -2.5187196989012E+00
(PID.TID 0000.0001) %MON dynstat_eta_sd               =   4.9395330397796E+00
(PID.TID 0000.0001) %MON dynstat_eta_del2             =   1.9060369161121E-01
(PID.TID 0000.0001) %MON dynstat_uvel_max             =   2.0421177166159E-02
(PID.TID 0000.0001) %MON dynstat_uvel_min             =  -9.1292186704301E-02
(PID.TID 0000.0001) %MON dynstat_uvel_mean            =   9.6819826831223E-09
(PID.TID 0000.0001) %MON dynstat_uvel_sd              =   2.7425670992682E-03
(PID.TID 0000.0001) %MON dynstat_uvel_del2            =   4.4582279629513E-06
(PID.TID 0000.0001) %MON dynstat_vvel_max             =   4.4312627979882E-02
(PID.TID 0000.0001) %MON dynstat_vvel_min             =  -3.0627137004515E-02
(PID.TID 0000.0001) %MON dynstat_vvel_mean            =   2.2731502760156E-07
(PID.TID 0000.0001) %MON dynstat_vvel_sd              =   1.1457168552037E-03
(PID.TID 0000.0001) %MON dynstat_vvel_del2            =   2.8340512979552E-06
(PID.TID 0000.0001) %MON dynstat_wvel_max             =   3.0715240680431E-03
(PID.TID 0000.0001) %MON dynstat_wvel_min             =  -3.1102336728519E-03
(PID.TID 0000.0001) %MON dynstat_wvel_mean            =   6.7465134187297E-10
(PID.TID 0000.0001) %MON dynstat_wvel_sd              =   5.3117855492998E-05
(PID.TID 0000.0001) %MON dynstat_wvel_del2            =   1.8941240995186E-07
(PID.TID 0000.0001) %MON dynstat_theta_max            =   1.2000000000000E+00
(PID.TID 0000.0001) %MON dynstat_theta_min            =  -1.0000000000000E+00
(PID.TID 0000.0001) %MON dynstat_theta_mean           =   5.6450503385701E-01
(PID.TID 0000.0001) %MON dynstat_theta_sd             =   8.4866596610609E-01
(PID.TID 0000.0001) %MON dynstat_theta_del2           =   7.7561896150467E-06
(PID.TID 0000.0001) %MON dynstat_salt_max             =   3.4700000000000E+01
(PID.TID 0000.0001) %MON dynstat_salt_min             =   3.4000000000000E+01
(PID.TID 0000.0001) %MON dynstat_salt_mean            =   3.4497716130820E+01
(PID.TID 0000.0001) %MON dynstat_salt_sd              =   2.7001043209418E-01
(PID.TID 0000.0001) %MON dynstat_salt_del2            =   3.0781477530430E-06
(PID.TID 0000.0001) %MON advcfl_uvel_max              =   9.1292186704301E-03
(PID.TID 0000.0001) %MON advcfl_vvel_max              =   4.4312627979882E-03
(PID.TID 0000.0001) %MON advcfl_wvel_max              =   1.5551168364259E-02
(PID.TID 0000.0001) %MON advcfl_W_hf_max              =   1.5551168364259E-02
(PID.TID 0000.0001) %MON pe_b_mean                    =  -6.8035316275585E-01
(PID.TID 0000.0001) %MON ke_max                       =   3.9801427135490E-03
(PID.TID 0000.0001) %MON ke_mean                      =   4.3464544406911E-06
(PID.TID 0000.0001) %MON ke_vol                       =   4.6183387132672E+12
(PID.TID 0000.0001) // =======================================================
(PID.TID 0000.0001) // End MONITOR dynamic field statistics
(PID.TID 0000.0001) // =======================================================
(PID.TID 0000.0001) // =======================================================
(PID.TID 0000.0001) // Begin OBCS MONITOR field statistics
(PID.TID 0000.0001) // =======================================================
(PID.TID 0000.0001) %MON obc_N_vVel_max               =   1.5199433387975E-07
(PID.TID 0000.0001) %MON obc_N_vVel_min               =   1.5199433387975E-07
(PID.TID 0000.0001) %MON obc_N_vVel_mean              =   1.5199433387975E-07
(PID.TID 0000.0001) %MON obc_N_vVel_sd                =  -8.2041534142985E-28
(PID.TID 0000.0001) %MON obc_N_vVel_Int               =   1.0031626036063E+01
(PID.TID 0000.0001) // =======================================================
(PID.TID 0000.0001) // End OBCS MONITOR field statistics
(PID.TID 0000.0001) // =======================================================
 cg2d: Sum(rhs),rhsMax =   3.00221033826917E+00  4.53032976891957E+02
(PID.TID 0000.0001)      cg2d_init_res =   8.27427033146972E-06
(PID.TID 0000.0001)      cg2d_iters(min,last) =      -1      80
(PID.TID 0000.0001)      cg2d_last_res =   9.88438459249796E-12
(PID.TID 0000.0001) // =======================================================
(PID.TID 0000.0001) // Begin MONITOR dynamic field statistics
(PID.TID 0000.0001) // =======================================================
(PID.TID 0000.0001) %MON time_tsnumber                =                  1701
(PID.TID 0000.0001) %MON time_secondsf                =   1.7010000000000E+05
(PID.TID 0000.0001) %MON dynstat_eta_max              =   5.8004229380192E+00
(PID.TID 0000.0001) %MON dynstat_eta_min              =  -1.4163276148548E+01
(PID.TID 0000.0001) %MON dynstat_eta_mean             =  -2.5187042348183E+00
(PID.TID 0000.0001) %MON dynstat_eta_sd               =   4.9395285337454E+00
(PID.TID 0000.0001) %MON dynstat_eta_del2             =   1.9060373604825E-01
(PID.TID 0000.0001) %MON dynstat_uvel_max             =   2.0454095409799E-02
(PID.TID 0000.0001) %MON dynstat_uvel_min             =  -9.1437008477580E-02
(PID.TID 0000.0001) %MON dynstat_uvel_mean            =   9.6975100958984E-09
(PID.TID 0000.0001) %MON dynstat_uvel_sd              =   2.7475651167230E-03
(PID.TID 0000.0001) %MON dynstat_uvel_del2            =   4.4673797613028E-06
(PID.TID 0000.0001) %MON dynstat_vvel_max             =   4.4353436626655E-02
(PID.TID 0000.0001) %MON dynstat_vvel_min             =  -3.0692056065998E-02
(PID.TID 0000.0001) %MON dynstat_vvel_mean            =   2.2703739950187E-07
(PID.TID 0000.0001) %MON dynstat_vvel_sd              =   1.1476998420215E-03
(PID.TID 0000.0001) %MON dynstat_vvel_del2            =   2.8383067464462E-06
(PID.TID 0000.0001) %MON dynstat_wvel_max             =   3.0747231489753E-03
(PID.TID 0000.0001) %MON dynstat_wvel_min             =  -3.1086522002283E-03
(PID.TID 0000.0001) %MON dynstat_wvel_mean            =   6.7514539932194E-10
(PID.TID 0000.0001) %MON dynstat_wvel_sd              =   5.3182143258918E-05
(PID.TID 0000.0001) %MON dynstat_wvel_del2            =   1.8962937356679E-07
(PID.TID 0000.0001) %MON dynstat_theta_max            =   1.2000000000000E+00
(PID.TID 0000.0001) %MON dynstat_theta_min            =  -1.0000000000000E+00
(PID.TID 0000.0001) %MON dynstat_theta_mean           =   5.6450330194625E-01
(PID.TID 0000.0001) %MON dynstat_theta_sd             =   8.4866525552758E-01
(PID.TID 0000.0001) %MON dynstat_theta_del2           =   7.7673473354691E-06
(PID.TID 0000.0001) %MON dynstat_salt_max             =   3.4700000000000E+01
(PID.TID 0000.0001) %MON dynstat_salt_min             =   3.4000000000000E+01
(PID.TID 0000.0001) %MON dynstat_salt_mean            =   3.4497715438038E+01
(PID.TID 0000.0001) %MON dynstat_salt_sd              =   2.7001017210191E-01
(PID.TID 0000.0001) %MON dynstat_salt_del2            =   3.0826053945569E-06
(PID.TID 0000.0001) %MON advcfl_uvel_max              =   9.1437008477580E-03
(PID.TID 0000.0001) %MON advcfl_vvel_max              =   4.4353436626655E-03
(PID.TID 0000.0001) %MON advcfl_wvel_max              =   1.5543261001142E-02
(PID.TID 0000.0001) %MON advcfl_W_hf_max              =   1.5543261001142E-02
(PID.TID 0000.0001) %MON pe_b_mean                    =  -6.8034849102211E-01
(PID.TID 0000.0001) %MON ke_max                       =   3.9925706368377E-03
(PID.TID 0000.0001) %MON ke_mean                      =   4.3621902622422E-06
(PID.TID 0000.0001) %MON ke_vol                       =   4.6183388049885E+12
(PID.TID 0000.0001) // =======================================================
(PID.TID 0000.0001) // End MONITOR dynamic field statistics
(PID.TID 0000.0001) // =======================================================
(PID.TID 0000.0001) // =======================================================
(PID.TID 0000.0001) // Begin OBCS MONITOR field statistics
(PID.TID 0000.0001) // =======================================================
(PID.TID 0000.0001) %MON obc_N_vVel_max               =   1.5170398605364E-07
(PID.TID 0000.0001) %MON obc_N_vVel_min               =   1.5170398605363E-07
(PID.TID 0000.0001) %MON obc_N_vVel_mean              =   1.5170398605364E-07
(PID.TID 0000.0001) %MON obc_N_vVel_sd                =  -1.6313643519971E-27
(PID.TID 0000.0001) %MON obc_N_vVel_Int               =   1.0012463079540E+01
(PID.TID 0000.0001) // =======================================================
(PID.TID 0000.0001) // End OBCS MONITOR field statistics
(PID.TID 0000.0001) // =======================================================
 cg2d: Sum(rhs),rhsMax =   3.00219206252829E+00  4.53032949103726E+02
(PID.TID 0000.0001)      cg2d_init_res =   8.28480829698320E-06
(PID.TID 0000.0001)      cg2d_iters(min,last) =      -1      80
(PID.TID 0000.0001)      cg2d_last_res =   9.89993166141079E-12
(PID.TID 0000.0001) // =======================================================
(PID.TID 0000.0001) // Begin MONITOR dynamic field statistics
(PID.TID 0000.0001) // =======================================================
(PID.TID 0000.0001) %MON time_tsnumber                =                  1702
(PID.TID 0000.0001) %MON time_secondsf                =   1.7020000000000E+05
(PID.TID 0000.0001) %MON dynstat_eta_max              =   5.8004268424311E+00
(PID.TID 0000.0001) %MON dynstat_eta_min              =  -1.4163272217105E+01
(PID.TID 0000.0001) %MON dynstat_eta_mean             =  -2.5186887478944E+00
(PID.TID 0000.0001) %MON dynstat_eta_sd               =   4.9395240207210E+00
(PID.TID 0000.0001) %MON dynstat_eta_del2             =   1.9060378053239E-01
(PID.TID 0000.0001) %MON dynstat_uvel_max             =   2.0487011034666E-02
(PID.TID 0000.0001) %MON dynstat_uvel_min             =  -9.1581856284108E-02
(PID.TID 0000.0001) %MON dynstat_uvel_mean            =   9.7118703962994E-09
(PID.TID 0000.0001) %MON dynstat_uvel_sd              =   2.7525679773516E-03
(PID.TID 0000.0001) %MON dynstat_uvel_del2            =   4.4765445737204E-06
(PID.TID 0000.0001) %MON dynstat_vvel_max             =   4.4394225148516E-02
(PID.TID 0000.0001) %MON dynstat_vvel_min             =  -3.0756991954298E-02
(PID.TID 0000.0001) %MON dynstat_vvel_mean            =   2.2673493323778E-07
(PID.TID 0000.0001) %MON dynstat_vvel_sd              =   1.1496856229906E-03
(PID.TID 0000.0001) %MON dynstat_vvel_del2            =   2.8425663382533E-06
(PID.TID 0000.0001) %MON dynstat_wvel_max             =   3.0779182992030E-03
(PID.TID 0000.0001) %MON dynstat_wvel_min             =  -3.1070591241532E-03
(PID.TID 0000.0001) %MON dynstat_wvel_mean            =   6.7582221452372E-10
(PID.TID 0000.0001) %MON dynstat_wvel_sd              =   5.3246383350294E-05
(PID.TID 0000.0001) %MON dynstat_wvel_del2            =   1.8984627902987E-07
(PID.TID 0000.0001) %MON dynstat_theta_max            =   1.2000000000000E+00
(PID.TID 0000.0001) %MON dynstat_theta_min            =  -1.0000000000000E+00
(PID.TID 0000.0001) %MON dynstat_theta_mean           =   5.6450156754041E-01
(PID.TID 0000.0001) %MON dynstat_theta_sd             =   8.4866454423514E-01
(PID.TID 0000.0001) %MON dynstat_theta_del2           =   7.7785136552980E-06
(PID.TID 0000.0001) %MON dynstat_salt_max             =   3.4700000000000E+01
(PID.TID 0000.0001) %MON dynstat_salt_min             =   3.4000000000000E+01
(PID.TID 0000.0001) %MON dynstat_salt_mean            =   3.4497714744259E+01
(PID.TID 0000.0001) %MON dynstat_salt_sd              =   2.7000991188748E-01
(PID.TID 0000.0001) %MON dynstat_salt_del2            =   3.0870665322689E-06
(PID.TID 0000.0001) %MON advcfl_uvel_max              =   9.1581856284108E-03
(PID.TID 0000.0001) %MON advcfl_vvel_max              =   4.4394225148516E-03
(PID.TID 0000.0001) %MON advcfl_wvel_max              =   1.5535295620766E-02
(PID.TID 0000.0001) %MON advcfl_W_hf_max              =   1.5535295620766E-02
(PID.TID 0000.0001) %MON pe_b_mean                    =  -6.8034381243308E-01
(PID.TID 0000.0001) %MON ke_max                       =   4.0050148160003E-03
(PID.TID 0000.0001) %MON ke_mean                      =   4.3779708193641E-06
(PID.TID 0000.0001) %MON ke_vol                       =   4.6183388968452E+12
(PID.TID 0000.0001) // =======================================================
(PID.TID 0000.0001) // End MONITOR dynamic field statistics
(PID.TID 0000.0001) // =======================================================
(PID.TID 0000.0001) // =======================================================
(PID.TID 0000.0001) // Begin OBCS MONITOR field statistics
(PID.TID 0000.0001) // =======================================================
(PID.TID 0000.0001) %MON obc_N_vVel_max               =   1.5137442816122E-07
(PID.TID 0000.0001) %MON obc_N_vVel_min               =   1.5137442816122E-07
(PID.TID 0000.0001) %MON obc_N_vVel_mean              =   1.5137442816122E-07
(PID.TID 0000.0001) %MON obc_N_vVel_sd                =   2.5309189142275E-14
(PID.TID 0000.0001) %MON obc_N_vVel_Int               =   9.9907122586403E+00
(PID.TID 0000.0001) // =======================================================
(PID.TID 0000.0001) // End OBCS MONITOR field statistics
(PID.TID 0000.0001) // =======================================================
 cg2d: Sum(rhs),rhsMax =   3.00217375970736E+00  4.53032921287934E+02
(PID.TID 0000.0001)      cg2d_init_res =   8.29533727377012E-06
(PID.TID 0000.0001)      cg2d_iters(min,last) =      -1      80
(PID.TID 0000.0001)      cg2d_last_res =   9.91550062432907E-12
(PID.TID 0000.0001) // =======================================================
(PID.TID 0000.0001) // Begin MONITOR dynamic field statistics
(PID.TID 0000.0001) // =======================================================
(PID.TID 0000.0001) %MON time_tsnumber                =                  1703
(PID.TID 0000.0001) %MON time_secondsf                =   1.7030000000000E+05
(PID.TID 0000.0001) %MON dynstat_eta_max              =   5.8004307535251E+00
(PID.TID 0000.0001) %MON dynstat_eta_min              =  -1.4163268278952E+01
(PID.TID 0000.0001) %MON dynstat_eta_mean             =  -2.5186732381004E+00
(PID.TID 0000.0001) %MON dynstat_eta_sd               =   4.9395195007188E+00
(PID.TID 0000.0001) %MON dynstat_eta_del2             =   1.9060382506359E-01
(PID.TID 0000.0001) %MON dynstat_uvel_max             =   2.0519923826285E-02
(PID.TID 0000.0001) %MON dynstat_uvel_min             =  -9.1726729246766E-02
(PID.TID 0000.0001) %MON dynstat_uvel_mean            =   9.7250234434272E-09
(PID.TID 0000.0001) %MON dynstat_uvel_sd              =   2.7575756743759E-03
(PID.TID 0000.0001) %MON dynstat_uvel_del2            =   4.4857223887014E-06
(PID.TID 0000.0001) %MON dynstat_vvel_max             =   4.4434993498872E-02
(PID.TID 0000.0001) %MON dynstat_vvel_min             =  -3.0821943959253E-02
(PID.TID 0000.0001) %MON dynstat_vvel_mean            =   2.2643410879869E-07
(PID.TID 0000.0001) %MON dynstat_vvel_sd              =   1.1516742172600E-03
(PID.TID 0000.0001) %MON dynstat_vvel_del2            =   2.8468301356993E-06
(PID.TID 0000.0001) %MON dynstat_wvel_max             =   3.0811095081919E-03
(PID.TID 0000.0001) %MON dynstat_wvel_min             =  -3.1054546504394E-03
(PID.TID 0000.0001) %MON dynstat_wvel_mean            =   6.7668385063541E-10
(PID.TID 0000.0001) %MON dynstat_wvel_sd              =   5.3310632164574E-05
(PID.TID 0000.0001) %MON dynstat_wvel_del2            =   1.9006332805388E-07
(PID.TID 0000.0001) %MON dynstat_theta_max            =   1.2000000000000E+00
(PID.TID 0000.0001) %MON dynstat_theta_min            =  -1.0000000000000E+00
(PID.TID 0000.0001) %MON dynstat_theta_mean           =   5.6449983063863E-01
(PID.TID 0000.0001) %MON dynstat_theta_sd             =   8.4866383222941E-01
(PID.TID 0000.0001) %MON dynstat_theta_del2           =   7.7896885647847E-06
(PID.TID 0000.0001) %MON dynstat_salt_max             =   3.4700000000000E+01
(PID.TID 0000.0001) %MON dynstat_salt_min             =   3.4000000000000E+01
(PID.TID 0000.0001) %MON dynstat_salt_mean            =   3.4497714049480E+01
(PID.TID 0000.0001) %MON dynstat_salt_sd              =   2.7000965145157E-01
(PID.TID 0000.0001) %MON dynstat_salt_del2            =   3.0915311679466E-06
(PID.TID 0000.0001) %MON advcfl_uvel_max              =   9.1726729246766E-03
(PID.TID 0000.0001) %MON advcfl_vvel_max              =   4.4434993498872E-03
(PID.TID 0000.0001) %MON advcfl_wvel_max              =   1.5527273252197E-02
(PID.TID 0000.0001) %MON advcfl_W_hf_max              =   1.5527273252197E-02
(PID.TID 0000.0001) %MON pe_b_mean                    =  -6.8033912698705E-01
(PID.TID 0000.0001) %MON ke_max                       =   4.0174752471569E-03
(PID.TID 0000.0001) %MON ke_mean                      =   4.3937962037435E-06
(PID.TID 0000.0001) %MON ke_vol                       =   4.6183389888375E+12
(PID.TID 0000.0001) // =======================================================
(PID.TID 0000.0001) // End MONITOR dynamic field statistics
(PID.TID 0000.0001) // =======================================================
(PID.TID 0000.0001) // =======================================================
(PID.TID 0000.0001) // Begin OBCS MONITOR field statistics
(PID.TID 0000.0001) // =======================================================
(PID.TID 0000.0001) %MON obc_N_vVel_max               =   1.5103015046685E-07
(PID.TID 0000.0001) %MON obc_N_vVel_min               =   1.5103015046685E-07
(PID.TID 0000.0001) %MON obc_N_vVel_mean              =   1.5103015046685E-07
(PID.TID 0000.0001) %MON obc_N_vVel_sd                =   4.2558484916494E-14
(PID.TID 0000.0001) %MON obc_N_vVel_Int               =   9.9679899308119E+00
(PID.TID 0000.0001) // =======================================================
(PID.TID 0000.0001) // End OBCS MONITOR field statistics
(PID.TID 0000.0001) // =======================================================
 cg2d: Sum(rhs),rhsMax =   3.00215542978136E+00  4.53032893448085E+02
(PID.TID 0000.0001)      cg2d_init_res =   8.30586115943265E-06
(PID.TID 0000.0001)      cg2d_iters(min,last) =      -1      80
(PID.TID 0000.0001)      cg2d_last_res =   9.93109427143180E-12
(PID.TID 0000.0001) // =======================================================
(PID.TID 0000.0001) // Begin MONITOR dynamic field statistics
(PID.TID 0000.0001) // =======================================================
(PID.TID 0000.0001) %MON time_tsnumber                =                  1704
(PID.TID 0000.0001) %MON time_secondsf                =   1.7040000000000E+05
(PID.TID 0000.0001) %MON dynstat_eta_max              =   5.8004346713381E+00
(PID.TID 0000.0001) %MON dynstat_eta_min              =  -1.4163264334211E+01
(PID.TID 0000.0001) %MON dynstat_eta_mean             =  -2.5186577054347E+00
(PID.TID 0000.0001) %MON dynstat_eta_sd               =   4.9395149737605E+00
(PID.TID 0000.0001) %MON dynstat_eta_del2             =   1.9060386964188E-01
(PID.TID 0000.0001) %MON dynstat_uvel_max             =   2.0552833569801E-02
(PID.TID 0000.0001) %MON dynstat_uvel_min             =  -9.1871626491905E-02
(PID.TID 0000.0001) %MON dynstat_uvel_mean            =   9.7369506339169E-09
(PID.TID 0000.0001) %MON dynstat_uvel_sd              =   2.7625882010190E-03
(PID.TID 0000.0001) %MON dynstat_uvel_del2            =   4.4949131947074E-06
(PID.TID 0000.0001) %MON dynstat_vvel_max             =   4.4475741629921E-02
(PID.TID 0000.0001) %MON dynstat_vvel_min             =  -3.0886911365315E-02
(PID.TID 0000.0001) %MON dynstat_vvel_mean            =   2.2616136236294E-07
(PID.TID 0000.0001) %MON dynstat_vvel_sd              =   1.1536656439910E-03
(PID.TID 0000.0001) %MON dynstat_vvel_del2            =   2.8510982005163E-06
(PID.TID 0000.0001) %MON dynstat_wvel_max             =   3.0842967655083E-03
(PID.TID 0000.0001) %MON dynstat_wvel_min             =  -3.1038389839574E-03
(PID.TID 0000.0001) %MON dynstat_wvel_mean            =   6.7772749546287E-10
(PID.TID 0000.0001) %MON dynstat_wvel_sd              =   5.3374946044291E-05
(PID.TID 0000.0001) %MON dynstat_wvel_del2            =   1.9028073125539E-07
(PID.TID 0000.0001) %MON dynstat_theta_max            =   1.2000000000000E+00
(PID.TID 0000.0001) %MON dynstat_theta_min            =  -1.0000000000000E+00
(PID.TID 0000.0001) %MON dynstat_theta_mean           =   5.6449809124016E-01
(PID.TID 0000.0001) %MON dynstat_theta_sd             =   8.4866311951066E-01
(PID.TID 0000.0001) %MON dynstat_theta_del2           =   7.8008720407501E-06
(PID.TID 0000.0001) %MON dynstat_salt_max             =   3.4700000000000E+01
(PID.TID 0000.0001) %MON dynstat_salt_min             =   3.4000000000000E+01
(PID.TID 0000.0001) %MON dynstat_salt_mean            =   3.4497713353703E+01
(PID.TID 0000.0001) %MON dynstat_salt_sd              =   2.7000939079427E-01
(PID.TID 0000.0001) %MON dynstat_salt_del2            =   3.0959992986773E-06
(PID.TID 0000.0001) %MON advcfl_uvel_max              =   9.1871626491905E-03
(PID.TID 0000.0001) %MON advcfl_vvel_max              =   4.4475741629921E-03
(PID.TID 0000.0001) %MON advcfl_wvel_max              =   1.5519194919787E-02
(PID.TID 0000.0001) %MON advcfl_W_hf_max              =   1.5519194919787E-02
(PID.TID 0000.0001) %MON pe_b_mean                    =  -6.8033443468792E-01
(PID.TID 0000.0001) %MON ke_max                       =   4.0299519277273E-03
(PID.TID 0000.0001) %MON ke_mean                      =   4.4096665071963E-06
(PID.TID 0000.0001) %MON ke_vol                       =   4.6183390809657E+12
(PID.TID 0000.0001) // =======================================================
(PID.TID 0000.0001) // End MONITOR dynamic field statistics
(PID.TID 0000.0001) // =======================================================
(PID.TID 0000.0001) // =======================================================
(PID.TID 0000.0001) // Begin OBCS MONITOR field statistics
(PID.TID 0000.0001) // =======================================================
(PID.TID 0000.0001) %MON obc_N_vVel_max               =   1.5069603231475E-07
(PID.TID 0000.0001) %MON obc_N_vVel_min               =   1.5069603231475E-07
(PID.TID 0000.0001) %MON obc_N_vVel_mean              =   1.5069603231475E-07
(PID.TID 0000.0001) %MON obc_N_vVel_sd                =  -1.0507627257544E-27
(PID.TID 0000.0001) %MON obc_N_vVel_Int               =   9.9459381327737E+00
(PID.TID 0000.0001) // =======================================================
(PID.TID 0000.0001) // End OBCS MONITOR field statistics
(PID.TID 0000.0001) // =======================================================
 cg2d: Sum(rhs),rhsMax =   3.00213707275724E+00  4.53032865587748E+02
(PID.TID 0000.0001)      cg2d_init_res =   8.31638171534438E-06
(PID.TID 0000.0001)      cg2d_iters(min,last) =      -1      80
(PID.TID 0000.0001)      cg2d_last_res =   9.94670983062928E-12
(PID.TID 0000.0001) // =======================================================
(PID.TID 0000.0001) // Begin MONITOR dynamic field statistics
(PID.TID 0000.0001) // =======================================================
(PID.TID 0000.0001) %MON time_tsnumber                =                  1705
(PID.TID 0000.0001) %MON time_secondsf                =   1.7050000000000E+05
(PID.TID 0000.0001) %MON dynstat_eta_max              =   5.8004385958383E+00
(PID.TID 0000.0001) %MON dynstat_eta_min              =  -1.4163260383058E+01
(PID.TID 0000.0001) %MON dynstat_eta_mean             =  -2.5186421499230E+00
(PID.TID 0000.0001) %MON dynstat_eta_sd               =   4.9395104398762E+00
(PID.TID 0000.0001) %MON dynstat_eta_del2             =   1.9060391426727E-01
(PID.TID 0000.0001) %MON dynstat_uvel_max             =   2.0585740049867E-02
(PID.TID 0000.0001) %MON dynstat_uvel_min             =  -9.2016547149250E-02
(PID.TID 0000.0001) %MON dynstat_uvel_mean            =   9.7476603713370E-09
(PID.TID 0000.0001) %MON dynstat_uvel_sd              =   2.7676055505071E-03
(PID.TID 0000.0001) %MON dynstat_uvel_del2            =   4.5041169802235E-06
(PID.TID 0000.0001) %MON dynstat_vvel_max             =   4.4516469492750E-02
(PID.TID 0000.0001) %MON dynstat_vvel_min             =  -3.0951893446041E-02
(PID.TID 0000.0001) %MON dynstat_vvel_mean            =   2.2594242362412E-07
(PID.TID 0000.0001) %MON dynstat_vvel_sd              =   1.1556599216108E-03
(PID.TID 0000.0001) %MON dynstat_vvel_del2            =   2.8553705906463E-06
(PID.TID 0000.0001) %MON dynstat_wvel_max             =   3.0874800608460E-03
(PID.TID 0000.0001) %MON dynstat_wvel_min             =  -3.1026033714797E-03
(PID.TID 0000.0001) %MON dynstat_wvel_mean            =   6.7894583683892E-10
(PID.TID 0000.0001) %MON dynstat_wvel_sd              =   5.3439378356144E-05
(PID.TID 0000.0001) %MON dynstat_wvel_del2            =   1.9049869703702E-07
(PID.TID 0000.0001) %MON dynstat_theta_max            =   1.2000000000000E+00
(PID.TID 0000.0001) %MON dynstat_theta_min            =  -1.0000000000000E+00
(PID.TID 0000.0001) %MON dynstat_theta_mean           =   5.6449634934438E-01
(PID.TID 0000.0001) %MON dynstat_theta_sd             =   8.4866240607870E-01
(PID.TID 0000.0001) %MON dynstat_theta_del2           =   7.8120640301630E-06
(PID.TID 0000.0001) %MON dynstat_salt_max             =   3.4700000000000E+01
(PID.TID 0000.0001) %MON dynstat_salt_min             =   3.4000000000000E+01
(PID.TID 0000.0001) %MON dynstat_salt_mean            =   3.4497712656927E+01
(PID.TID 0000.0001) %MON dynstat_salt_sd              =   2.7000912991631E-01
(PID.TID 0000.0001) %MON dynstat_salt_del2            =   3.1004715090815E-06
(PID.TID 0000.0001) %MON advcfl_uvel_max              =   9.2016547149250E-03
(PID.TID 0000.0001) %MON advcfl_vvel_max              =   4.4516469492750E-03
(PID.TID 0000.0001) %MON advcfl_wvel_max              =   1.5513016857398E-02
(PID.TID 0000.0001) %MON advcfl_W_hf_max              =   1.5513016857398E-02
(PID.TID 0000.0001) %MON pe_b_mean                    =  -6.8032973554500E-01
(PID.TID 0000.0001) %MON ke_max                       =   4.0424448563120E-03
(PID.TID 0000.0001) %MON ke_mean                      =   4.4255818208107E-06
(PID.TID 0000.0001) %MON ke_vol                       =   4.6183391732297E+12
(PID.TID 0000.0001) // =======================================================
(PID.TID 0000.0001) // End MONITOR dynamic field statistics
(PID.TID 0000.0001) // =======================================================
(PID.TID 0000.0001) // =======================================================
(PID.TID 0000.0001) // Begin OBCS MONITOR field statistics
(PID.TID 0000.0001) // =======================================================
(PID.TID 0000.0001) %MON obc_N_vVel_max               =   1.5039669400701E-07
(PID.TID 0000.0001) %MON obc_N_vVel_min               =   1.5039669400701E-07
(PID.TID 0000.0001) %MON obc_N_vVel_mean              =   1.5039669400701E-07
(PID.TID 0000.0001) %MON obc_N_vVel_sd                =  -8.1410445418808E-28
(PID.TID 0000.0001) %MON obc_N_vVel_Int               =   9.9261818044628E+00
(PID.TID 0000.0001) // =======================================================
(PID.TID 0000.0001) // End OBCS MONITOR field statistics
(PID.TID 0000.0001) // =======================================================
 cg2d: Sum(rhs),rhsMax =   3.00211868867397E+00  4.53032837710444E+02
(PID.TID 0000.0001)      cg2d_init_res =   8.32697638977413E-06
(PID.TID 0000.0001)      cg2d_iters(min,last) =      -1      80
(PID.TID 0000.0001)      cg2d_last_res =   9.96241182810764E-12
(PID.TID 0000.0001) // =======================================================
(PID.TID 0000.0001) // Begin MONITOR dynamic field statistics
(PID.TID 0000.0001) // =======================================================
(PID.TID 0000.0001) %MON time_tsnumber                =                  1706
(PID.TID 0000.0001) %MON time_secondsf                =   1.7060000000000E+05
(PID.TID 0000.0001) %MON dynstat_eta_max              =   5.8004425269474E+00
(PID.TID 0000.0001) %MON dynstat_eta_min              =  -1.4163256425714E+01
(PID.TID 0000.0001) %MON dynstat_eta_mean             =  -2.5186265716176E+00
(PID.TID 0000.0001) %MON dynstat_eta_sd               =   4.9395058991072E+00
(PID.TID 0000.0001) %MON dynstat_eta_del2             =   1.9060395894017E-01
(PID.TID 0000.0001) %MON dynstat_uvel_max             =   2.0618643050911E-02
(PID.TID 0000.0001) %MON dynstat_uvel_min             =  -9.2161490352730E-02
(PID.TID 0000.0001) %MON dynstat_uvel_mean            =   9.7571975955184E-09
(PID.TID 0000.0001) %MON dynstat_uvel_sd              =   2.7726277161091E-03
(PID.TID 0000.0001) %MON dynstat_uvel_del2            =   4.5133337371299E-06
(PID.TID 0000.0001) %MON dynstat_vvel_max             =   4.4557177037209E-02
(PID.TID 0000.0001) %MON dynstat_vvel_min             =  -3.1016889463398E-02
(PID.TID 0000.0001) %MON dynstat_vvel_mean            =   2.2580165103129E-07
(PID.TID 0000.0001) %MON dynstat_vvel_sd              =   1.1576570669709E-03
(PID.TID 0000.0001) %MON dynstat_vvel_del2            =   2.8596473565715E-06
(PID.TID 0000.0001) %MON dynstat_wvel_max             =   3.0906593840053E-03
(PID.TID 0000.0001) %MON dynstat_wvel_min             =  -3.1016979265673E-03
(PID.TID 0000.0001) %MON dynstat_wvel_mean            =   6.8032652650884E-10
(PID.TID 0000.0001) %MON dynstat_wvel_sd              =   5.3503976634084E-05
(PID.TID 0000.0001) %MON dynstat_wvel_del2            =   1.9071741802045E-07
(PID.TID 0000.0001) %MON dynstat_theta_max            =   1.2000000000000E+00
(PID.TID 0000.0001) %MON dynstat_theta_min            =  -1.0000000000000E+00
(PID.TID 0000.0001) %MON dynstat_theta_mean           =   5.6449460495078E-01
(PID.TID 0000.0001) %MON dynstat_theta_sd             =   8.4866169193349E-01
(PID.TID 0000.0001) %MON dynstat_theta_del2           =   7.8232644512228E-06
(PID.TID 0000.0001) %MON dynstat_salt_max             =   3.4700000000000E+01
(PID.TID 0000.0001) %MON dynstat_salt_min             =   3.4000000000000E+01
(PID.TID 0000.0001) %MON dynstat_salt_mean            =   3.4497711959151E+01
(PID.TID 0000.0001) %MON dynstat_salt_sd              =   2.7000886881751E-01
(PID.TID 0000.0001) %MON dynstat_salt_del2            =   3.1049475435381E-06
(PID.TID 0000.0001) %MON advcfl_uvel_max              =   9.2161490352730E-03
(PID.TID 0000.0001) %MON advcfl_vvel_max              =   4.4557177037209E-03
(PID.TID 0000.0001) %MON advcfl_wvel_max              =   1.5508489632837E-02
(PID.TID 0000.0001) %MON advcfl_W_hf_max              =   1.5508489632837E-02
(PID.TID 0000.0001) %MON pe_b_mean                    =  -6.8032502957274E-01
(PID.TID 0000.0001) %MON ke_max                       =   4.0549540326282E-03
(PID.TID 0000.0001) %MON ke_mean                      =   4.4415422340729E-06
(PID.TID 0000.0001) %MON ke_vol                       =   4.6183392656295E+12
(PID.TID 0000.0001) // =======================================================
(PID.TID 0000.0001) // End MONITOR dynamic field statistics
(PID.TID 0000.0001) // =======================================================
(PID.TID 0000.0001) // =======================================================
(PID.TID 0000.0001) // Begin OBCS MONITOR field statistics
(PID.TID 0000.0001) // =======================================================
(PID.TID 0000.0001) %MON obc_N_vVel_max               =   1.5015588698857E-07
(PID.TID 0000.0001) %MON obc_N_vVel_min               =   1.5015588698856E-07
(PID.TID 0000.0001) %MON obc_N_vVel_mean              =   1.5015588698857E-07
(PID.TID 0000.0001) %MON obc_N_vVel_sd                =  -1.0728508311006E-27
(PID.TID 0000.0001) %MON obc_N_vVel_Int               =   9.9102885412454E+00
(PID.TID 0000.0001) // =======================================================
(PID.TID 0000.0001) // End OBCS MONITOR field statistics
(PID.TID 0000.0001) // =======================================================
 cg2d: Sum(rhs),rhsMax =   3.00210027760108E+00  4.53032809819548E+02
(PID.TID 0000.0001)      cg2d_init_res =   8.33749690606424E-06
(PID.TID 0000.0001)      cg2d_iters(min,last) =      -1      80
(PID.TID 0000.0001)      cg2d_last_res =   9.97797679775356E-12
(PID.TID 0000.0001) // =======================================================
(PID.TID 0000.0001) // Begin MONITOR dynamic field statistics
(PID.TID 0000.0001) // =======================================================
(PID.TID 0000.0001) %MON time_tsnumber                =                  1707
(PID.TID 0000.0001) %MON time_secondsf                =   1.7070000000000E+05
(PID.TID 0000.0001) %MON dynstat_eta_max              =   5.8004464645300E+00
(PID.TID 0000.0001) %MON dynstat_eta_min              =  -1.4163252462445E+01
(PID.TID 0000.0001) %MON dynstat_eta_mean             =  -2.5186109705957E+00
(PID.TID 0000.0001) %MON dynstat_eta_sd               =   4.9395013515001E+00
(PID.TID 0000.0001) %MON dynstat_eta_del2             =   1.9060400366102E-01
(PID.TID 0000.0001) %MON dynstat_uvel_max             =   2.0651542359635E-02
(PID.TID 0000.0001) %MON dynstat_uvel_min             =  -9.2306455235843E-02
(PID.TID 0000.0001) %MON dynstat_uvel_mean            =   9.7656553616124E-09
(PID.TID 0000.0001) %MON dynstat_uvel_sd              =   2.7776546912104E-03
(PID.TID 0000.0001) %MON dynstat_uvel_del2            =   4.5225634606977E-06
(PID.TID 0000.0001) %MON dynstat_vvel_max             =   4.4597864211855E-02
(PID.TID 0000.0001) %MON dynstat_vvel_min             =  -3.1081898684718E-02
(PID.TID 0000.0001) %MON dynstat_vvel_mean            =   2.2576146343277E-07
(PID.TID 0000.0001) %MON dynstat_vvel_sd              =   1.1596570945865E-03
(PID.TID 0000.0001) %MON dynstat_vvel_del2            =   2.8639285321592E-06
(PID.TID 0000.0001) %MON dynstat_wvel_max             =   3.0938347249500E-03
(PID.TID 0000.0001) %MON dynstat_wvel_min             =  -3.1007820017676E-03
(PID.TID 0000.0001) %MON dynstat_wvel_mean            =   6.8185352744088E-10
(PID.TID 0000.0001) %MON dynstat_wvel_sd              =   5.3568780172112E-05
(PID.TID 0000.0001) %MON dynstat_wvel_del2            =   1.9093706233595E-07
(PID.TID 0000.0001) %MON dynstat_theta_max            =   1.2000000000000E+00
(PID.TID 0000.0001) %MON dynstat_theta_min            =  -1.0000000000000E+00
(PID.TID 0000.0001) %MON dynstat_theta_mean           =   5.6449285805898E-01
(PID.TID 0000.0001) %MON dynstat_theta_sd             =   8.4866097707417E-01
(PID.TID 0000.0001) %MON dynstat_theta_del2           =   7.8344730539068E-06
(PID.TID 0000.0001) %MON dynstat_salt_max             =   3.4700000000000E+01
(PID.TID 0000.0001) %MON dynstat_salt_min             =   3.4000000000000E+01
(PID.TID 0000.0001) %MON dynstat_salt_mean            =   3.4497711260375E+01
(PID.TID 0000.0001) %MON dynstat_salt_sd              =   2.7000860749921E-01
(PID.TID 0000.0001) %MON dynstat_salt_del2            =   3.1094291322882E-06
(PID.TID 0000.0001) %MON advcfl_uvel_max              =   9.2306455235843E-03
(PID.TID 0000.0001) %MON advcfl_vvel_max              =   4.4597864211855E-03
(PID.TID 0000.0001) %MON advcfl_wvel_max              =   1.5503910008838E-02
(PID.TID 0000.0001) %MON advcfl_W_hf_max              =   1.5503910008838E-02
(PID.TID 0000.0001) %MON pe_b_mean                    =  -6.8032031679021E-01
(PID.TID 0000.0001) %MON ke_max                       =   4.0674794577157E-03
(PID.TID 0000.0001) %MON ke_mean                      =   4.4575478341712E-06
(PID.TID 0000.0001) %MON ke_vol                       =   4.6183393581646E+12
(PID.TID 0000.0001) // =======================================================
(PID.TID 0000.0001) // End MONITOR dynamic field statistics
(PID.TID 0000.0001) // =======================================================
(PID.TID 0000.0001) // =======================================================
(PID.TID 0000.0001) // Begin OBCS MONITOR field statistics
(PID.TID 0000.0001) // =======================================================
(PID.TID 0000.0001) %MON obc_N_vVel_max               =   1.4999587798739E-07
(PID.TID 0000.0001) %MON obc_N_vVel_min               =   1.4999587798739E-07
(PID.TID 0000.0001) %MON obc_N_vVel_mean              =   1.4999587798739E-07
(PID.TID 0000.0001) %MON obc_N_vVel_sd                =   1.4755528111220E-14
(PID.TID 0000.0001) %MON obc_N_vVel_Int               =   9.8997279471678E+00
(PID.TID 0000.0001) // =======================================================
(PID.TID 0000.0001) // End OBCS MONITOR field statistics
(PID.TID 0000.0001) // =======================================================
 cg2d: Sum(rhs),rhsMax =   3.00208183963613E+00  4.53032781918248E+02
(PID.TID 0000.0001)      cg2d_init_res =   8.34805537354445E-06
(PID.TID 0000.0001)      cg2d_iters(min,last) =      -1      80
(PID.TID 0000.0001)      cg2d_last_res =   9.99318376922501E-12
(PID.TID 0000.0001) // =======================================================
(PID.TID 0000.0001) // Begin MONITOR dynamic field statistics
(PID.TID 0000.0001) // =======================================================
(PID.TID 0000.0001) %MON time_tsnumber                =                  1708
(PID.TID 0000.0001) %MON time_secondsf                =   1.7080000000000E+05
(PID.TID 0000.0001) %MON dynstat_eta_max              =   5.8004504084089E+00
(PID.TID 0000.0001) %MON dynstat_eta_min              =  -1.4163248493572E+01
(PID.TID 0000.0001) %MON dynstat_eta_mean             =  -2.5185953469567E+00
(PID.TID 0000.0001) %MON dynstat_eta_sd               =   4.9394967971403E+00
(PID.TID 0000.0001) %MON dynstat_eta_del2             =   1.9060404843414E-01
(PID.TID 0000.0001) %MON dynstat_uvel_max             =   2.0684437764119E-02
(PID.TID 0000.0001) %MON dynstat_uvel_min             =  -9.2451440913610E-02
(PID.TID 0000.0001) %MON dynstat_uvel_mean            =   9.7732488947922E-09
(PID.TID 0000.0001) %MON dynstat_uvel_sd              =   2.7826864699148E-03
(PID.TID 0000.0001) %MON dynstat_uvel_del2            =   4.5318061868755E-06
(PID.TID 0000.0001) %MON dynstat_vvel_max             =   4.4638530963807E-02
(PID.TID 0000.0001) %MON dynstat_vvel_min             =  -3.1146920394040E-02
(PID.TID 0000.0001) %MON dynstat_vvel_mean            =   2.2584172154906E-07
(PID.TID 0000.0001) %MON dynstat_vvel_sd              =   1.1616600145767E-03
(PID.TID 0000.0001) %MON dynstat_vvel_del2            =   2.8682141084844E-06
(PID.TID 0000.0001) %MON dynstat_wvel_max             =   3.0970060738697E-03
(PID.TID 0000.0001) %MON dynstat_wvel_min             =  -3.0998557765863E-03
(PID.TID 0000.0001) %MON dynstat_wvel_mean            =   6.8350328858607E-10
(PID.TID 0000.0001) %MON dynstat_wvel_sd              =   5.3633818004812E-05
(PID.TID 0000.0001) %MON dynstat_wvel_del2            =   1.9115776171220E-07
(PID.TID 0000.0001) %MON dynstat_theta_max            =   1.2000000000000E+00
(PID.TID 0000.0001) %MON dynstat_theta_min            =  -1.0000000000000E+00
(PID.TID 0000.0001) %MON dynstat_theta_mean           =   5.6449110866865E-01
(PID.TID 0000.0001) %MON dynstat_theta_sd             =   8.4866026150044E-01
(PID.TID 0000.0001) %MON dynstat_theta_del2           =   7.8456901592603E-06
(PID.TID 0000.0001) %MON dynstat_salt_max             =   3.4700000000000E+01
(PID.TID 0000.0001) %MON dynstat_salt_min             =   3.4000000000000E+01
(PID.TID 0000.0001) %MON dynstat_salt_mean            =   3.4497710560599E+01
(PID.TID 0000.0001) %MON dynstat_salt_sd              =   2.7000834596008E-01
(PID.TID 0000.0001) %MON dynstat_salt_del2            =   3.1139142258020E-06
(PID.TID 0000.0001) %MON advcfl_uvel_max              =   9.2451440913610E-03
(PID.TID 0000.0001) %MON advcfl_vvel_max              =   4.4638530963807E-03
(PID.TID 0000.0001) %MON advcfl_wvel_max              =   1.5499278882932E-02
(PID.TID 0000.0001) %MON advcfl_W_hf_max              =   1.5499278882932E-02
(PID.TID 0000.0001) %MON pe_b_mean                    =  -6.8031559722052E-01
(PID.TID 0000.0001) %MON ke_max                       =   4.0800211339977E-03
(PID.TID 0000.0001) %MON ke_mean                      =   4.4735987052276E-06
(PID.TID 0000.0001) %MON ke_vol                       =   4.6183394508347E+12
(PID.TID 0000.0001) // =======================================================
(PID.TID 0000.0001) // End MONITOR dynamic field statistics
(PID.TID 0000.0001) // =======================================================
(PID.TID 0000.0001) // =======================================================
(PID.TID 0000.0001) // Begin OBCS MONITOR field statistics
(PID.TID 0000.0001) // =======================================================
(PID.TID 0000.0001) %MON obc_N_vVel_max               =   1.4993693605268E-07
(PID.TID 0000.0001) %MON obc_N_vVel_min               =   1.4993693605268E-07
(PID.TID 0000.0001) %MON obc_N_vVel_mean              =   1.4993693605268E-07
(PID.TID 0000.0001) %MON obc_N_vVel_sd                =  -4.2598488881935E-28
(PID.TID 0000.0001) %MON obc_N_vVel_Int               =   9.8958377794769E+00
(PID.TID 0000.0001) // =======================================================
(PID.TID 0000.0001) // End OBCS MONITOR field statistics
(PID.TID 0000.0001) // =======================================================
 cg2d: Sum(rhs),rhsMax =   3.00206337490204E+00  4.53032754009441E+02
(PID.TID 0000.0001)      cg2d_init_res =   8.35857358349061E-06
(PID.TID 0000.0001)      cg2d_iters(min,last) =      -1      81
(PID.TID 0000.0001)      cg2d_last_res =   8.17136586463025E-12
(PID.TID 0000.0001) // =======================================================
(PID.TID 0000.0001) // Begin MONITOR dynamic field statistics
(PID.TID 0000.0001) // =======================================================
(PID.TID 0000.0001) %MON time_tsnumber                =                  1709
(PID.TID 0000.0001) %MON time_secondsf                =   1.7090000000000E+05
(PID.TID 0000.0001) %MON dynstat_eta_max              =   5.8004543585465E+00
(PID.TID 0000.0001) %MON dynstat_eta_min              =  -1.4163244519386E+01
(PID.TID 0000.0001) %MON dynstat_eta_mean             =  -2.5185797008199E+00
(PID.TID 0000.0001) %MON dynstat_eta_sd               =   4.9394922360396E+00
(PID.TID 0000.0001) %MON dynstat_eta_del2             =   1.9060409325421E-01
(PID.TID 0000.0001) %MON dynstat_uvel_max             =   2.0717329032571E-02
(PID.TID 0000.0001) %MON dynstat_uvel_min             =  -9.2596446578025E-02
(PID.TID 0000.0001) %MON dynstat_uvel_mean            =   9.7797467558768E-09
(PID.TID 0000.0001) %MON dynstat_uvel_sd              =   2.7877230455960E-03
(PID.TID 0000.0001) %MON dynstat_uvel_del2            =   4.5410619038676E-06
(PID.TID 0000.0001) %MON dynstat_vvel_max             =   4.4679177240895E-02
(PID.TID 0000.0001) %MON dynstat_vvel_min             =  -3.1211953810995E-02
(PID.TID 0000.0001) %MON dynstat_vvel_mean            =   2.2605933059088E-07
(PID.TID 0000.0001) %MON dynstat_vvel_sd              =   1.1636658358213E-03
(PID.TID 0000.0001) %MON dynstat_vvel_del2            =   2.8725040992997E-06
(PID.TID 0000.0001) %MON dynstat_wvel_max             =   3.1001734204762E-03
(PID.TID 0000.0001) %MON dynstat_wvel_min             =  -3.0989194329181E-03
(PID.TID 0000.0001) %MON dynstat_wvel_mean            =   6.8526181399186E-10
(PID.TID 0000.0001) %MON dynstat_wvel_sd              =   5.3699107564824E-05
(PID.TID 0000.0001) %MON dynstat_wvel_del2            =   1.9137960742353E-07
(PID.TID 0000.0001) %MON dynstat_theta_max            =   1.2000000000000E+00
(PID.TID 0000.0001) %MON dynstat_theta_min            =  -1.0000000000000E+00
(PID.TID 0000.0001) %MON dynstat_theta_mean           =   5.6448935677955E-01
(PID.TID 0000.0001) %MON dynstat_theta_sd             =   8.4865954521163E-01
(PID.TID 0000.0001) %MON dynstat_theta_del2           =   7.8569156755460E-06
(PID.TID 0000.0001) %MON dynstat_salt_max             =   3.4700000000000E+01
(PID.TID 0000.0001) %MON dynstat_salt_min             =   3.4000000000000E+01
(PID.TID 0000.0001) %MON dynstat_salt_mean            =   3.4497709859824E+01
(PID.TID 0000.0001) %MON dynstat_salt_sd              =   2.7000808419999E-01
(PID.TID 0000.0001) %MON dynstat_salt_del2            =   3.1184028353275E-06
(PID.TID 0000.0001) %MON advcfl_uvel_max              =   9.2596446578025E-03
(PID.TID 0000.0001) %MON advcfl_vvel_max              =   4.4679177240895E-03
(PID.TID 0000.0001) %MON advcfl_wvel_max              =   1.5500867102381E-02
(PID.TID 0000.0001) %MON advcfl_W_hf_max              =   1.5500867102381E-02
(PID.TID 0000.0001) %MON pe_b_mean                    =  -6.8031087089027E-01
(PID.TID 0000.0001) %MON ke_max                       =   4.0925790623896E-03
(PID.TID 0000.0001) %MON ke_mean                      =   4.4896949279820E-06
(PID.TID 0000.0001) %MON ke_vol                       =   4.6183395436391E+12
(PID.TID 0000.0001) // =======================================================
(PID.TID 0000.0001) // End MONITOR dynamic field statistics
(PID.TID 0000.0001) // =======================================================
(PID.TID 0000.0001) // =======================================================
(PID.TID 0000.0001) // Begin OBCS MONITOR field statistics
(PID.TID 0000.0001) // =======================================================
(PID.TID 0000.0001) %MON obc_N_vVel_max               =   1.4999680401053E-07
(PID.TID 0000.0001) %MON obc_N_vVel_min               =   1.4999680401053E-07
(PID.TID 0000.0001) %MON obc_N_vVel_mean              =   1.4999680401053E-07
(PID.TID 0000.0001) %MON obc_N_vVel_sd                =  -1.0349855076500E-27
(PID.TID 0000.0001) %MON obc_N_vVel_Int               =   9.8997890646949E+00
(PID.TID 0000.0001) // =======================================================
(PID.TID 0000.0001) // End OBCS MONITOR field statistics
(PID.TID 0000.0001) // =======================================================
 cg2d: Sum(rhs),rhsMax =   3.00204488353843E+00  4.53032726096440E+02
(PID.TID 0000.0001)      cg2d_init_res =   8.36911118722650E-06
(PID.TID 0000.0001)      cg2d_iters(min,last) =      -1      81
(PID.TID 0000.0001)      cg2d_last_res =   8.18366739404163E-12
(PID.TID 0000.0001) // =======================================================
(PID.TID 0000.0001) // Begin MONITOR dynamic field statistics
(PID.TID 0000.0001) // =======================================================
(PID.TID 0000.0001) %MON time_tsnumber                =                  1710
(PID.TID 0000.0001) %MON time_secondsf                =   1.7100000000000E+05
(PID.TID 0000.0001) %MON dynstat_eta_max              =   5.8004583143166E+00
(PID.TID 0000.0001) %MON dynstat_eta_min              =  -1.4163240540369E+01
(PID.TID 0000.0001) %MON dynstat_eta_mean             =  -2.5185640323209E+00
(PID.TID 0000.0001) %MON dynstat_eta_sd               =   4.9394876682456E+00
(PID.TID 0000.0001) %MON dynstat_eta_del2             =   1.9060413812151E-01
(PID.TID 0000.0001) %MON dynstat_uvel_max             =   2.0750215967679E-02
(PID.TID 0000.0001) %MON dynstat_uvel_min             =  -9.2741471373131E-02
(PID.TID 0000.0001) %MON dynstat_uvel_mean            =   9.7854320325353E-09
(PID.TID 0000.0001) %MON dynstat_uvel_sd              =   2.7927644115184E-03
(PID.TID 0000.0001) %MON dynstat_uvel_del2            =   4.5503306001153E-06
(PID.TID 0000.0001) %MON dynstat_vvel_max             =   4.4719802980357E-02
(PID.TID 0000.0001) %MON dynstat_vvel_min             =  -3.1276998194173E-02
(PID.TID 0000.0001) %MON dynstat_vvel_mean            =   2.2642794605835E-07
(PID.TID 0000.0001) %MON dynstat_vvel_sd              =   1.1656745642345E-03
(PID.TID 0000.0001) %MON dynstat_vvel_del2            =   2.8767985013324E-06
(PID.TID 0000.0001) %MON dynstat_wvel_max             =   3.1033367570833E-03
(PID.TID 0000.0001) %MON dynstat_wvel_min             =  -3.0979731385360E-03
(PID.TID 0000.0001) %MON dynstat_wvel_mean            =   6.8710602611798E-10
(PID.TID 0000.0001) %MON dynstat_wvel_sd              =   5.3764653628713E-05
(PID.TID 0000.0001) %MON dynstat_wvel_del2            =   1.9160263833963E-07
(PID.TID 0000.0001) %MON dynstat_theta_max            =   1.2000000000000E+00
(PID.TID 0000.0001) %MON dynstat_theta_min            =  -1.0000000000000E+00
(PID.TID 0000.0001) %MON dynstat_theta_mean           =   5.6448760239149E-01
(PID.TID 0000.0001) %MON dynstat_theta_sd             =   8.4865882820677E-01
(PID.TID 0000.0001) %MON dynstat_theta_del2           =   7.8681495680081E-06
(PID.TID 0000.0001) %MON dynstat_salt_max             =   3.4700000000000E+01
(PID.TID 0000.0001) %MON dynstat_salt_min             =   3.4000000000000E+01
(PID.TID 0000.0001) %MON dynstat_salt_mean            =   3.4497709158047E+01
(PID.TID 0000.0001) %MON dynstat_salt_sd              =   2.7000782221911E-01
(PID.TID 0000.0001) %MON dynstat_salt_del2            =   3.1228949336880E-06
(PID.TID 0000.0001) %MON advcfl_uvel_max              =   9.2741471373131E-03
(PID.TID 0000.0001) %MON advcfl_vvel_max              =   4.4719802980357E-03
(PID.TID 0000.0001) %MON advcfl_wvel_max              =   1.5516683785417E-02
(PID.TID 0000.0001) %MON advcfl_W_hf_max              =   1.5516683785417E-02
(PID.TID 0000.0001) %MON pe_b_mean                    =  -6.8030613782885E-01
(PID.TID 0000.0001) %MON ke_max                       =   4.1051532482663E-03
(PID.TID 0000.0001) %MON ke_mean                      =   4.5058365794502E-06
(PID.TID 0000.0001) %MON ke_vol                       =   4.6183396365771E+12
(PID.TID 0000.0001) // =======================================================
(PID.TID 0000.0001) // End MONITOR dynamic field statistics
(PID.TID 0000.0001) // =======================================================
(PID.TID 0000.0001) // =======================================================
(PID.TID 0000.0001) // Begin OBCS MONITOR field statistics
(PID.TID 0000.0001) // =======================================================
(PID.TID 0000.0001) %MON obc_N_vVel_max               =   1.5019003778869E-07
(PID.TID 0000.0001) %MON obc_N_vVel_min               =   1.5019003778869E-07
(PID.TID 0000.0001) %MON obc_N_vVel_mean              =   1.5019003778869E-07
(PID.TID 0000.0001) %MON obc_N_vVel_sd                =  -1.3915506368099E-27
(PID.TID 0000.0001) %MON obc_N_vVel_Int               =   9.9125424940538E+00
(PID.TID 0000.0001) // =======================================================
(PID.TID 0000.0001) // End OBCS MONITOR field statistics
(PID.TID 0000.0001) // =======================================================
 cg2d: Sum(rhs),rhsMax =   3.00202636571876E+00  4.53032698179943E+02
(PID.TID 0000.0001)      cg2d_init_res =   8.37963654996125E-06
(PID.TID 0000.0001)      cg2d_iters(min,last) =      -1      81
(PID.TID 0000.0001)      cg2d_last_res =   8.19589997951816E-12
(PID.TID 0000.0001) // =======================================================
(PID.TID 0000.0001) // Begin MONITOR dynamic field statistics
(PID.TID 0000.0001) // =======================================================
(PID.TID 0000.0001) %MON time_tsnumber                =                  1711
(PID.TID 0000.0001) %MON time_secondsf                =   1.7110000000000E+05
(PID.TID 0000.0001) %MON dynstat_eta_max              =   5.8004622756115E+00
(PID.TID 0000.0001) %MON dynstat_eta_min              =  -1.4163236556867E+01
(PID.TID 0000.0001) %MON dynstat_eta_mean             =  -2.5185483416091E+00
(PID.TID 0000.0001) %MON dynstat_eta_sd               =   4.9394830938178E+00
(PID.TID 0000.0001) %MON dynstat_eta_del2             =   1.9060418303597E-01
(PID.TID 0000.0001) %MON dynstat_uvel_max             =   2.0783098337329E-02
(PID.TID 0000.0001) %MON dynstat_uvel_min             =  -9.2886514440853E-02
(PID.TID 0000.0001) %MON dynstat_uvel_mean            =   9.7905606714028E-09
(PID.TID 0000.0001) %MON dynstat_uvel_sd              =   2.7978105609652E-03
(PID.TID 0000.0001) %MON dynstat_uvel_del2            =   4.5596122636866E-06
(PID.TID 0000.0001) %MON dynstat_vvel_max             =   4.4760408131878E-02
(PID.TID 0000.0001) %MON dynstat_vvel_min             =  -3.1342052774189E-02
(PID.TID 0000.0001) %MON dynstat_vvel_mean            =   2.2695758005422E-07
(PID.TID 0000.0001) %MON dynstat_vvel_sd              =   1.1676862031648E-03
(PID.TID 0000.0001) %MON dynstat_vvel_del2            =   2.8810973019319E-06
(PID.TID 0000.0001) %MON dynstat_wvel_max             =   3.1064960722333E-03
(PID.TID 0000.0001) %MON dynstat_wvel_min             =  -3.0970170787727E-03
(PID.TID 0000.0001) %MON dynstat_wvel_mean            =   6.8899543909447E-10
(PID.TID 0000.0001) %MON dynstat_wvel_sd              =   5.3830448374674E-05
(PID.TID 0000.0001) %MON dynstat_wvel_del2            =   1.9182684208917E-07
(PID.TID 0000.0001) %MON dynstat_theta_max            =   1.2000000000000E+00
(PID.TID 0000.0001) %MON dynstat_theta_min            =  -1.0000000000000E+00
(PID.TID 0000.0001) %MON dynstat_theta_mean           =   5.6448584550429E-01
(PID.TID 0000.0001) %MON dynstat_theta_sd             =   8.4865811048509E-01
(PID.TID 0000.0001) %MON dynstat_theta_del2           =   7.8793918500481E-06
(PID.TID 0000.0001) %MON dynstat_salt_max             =   3.4700000000000E+01
(PID.TID 0000.0001) %MON dynstat_salt_min             =   3.4000000000000E+01
(PID.TID 0000.0001) %MON dynstat_salt_mean            =   3.4497708455271E+01
(PID.TID 0000.0001) %MON dynstat_salt_sd              =   2.7000756001730E-01
(PID.TID 0000.0001) %MON dynstat_salt_del2            =   3.1273905395613E-06
(PID.TID 0000.0001) %MON advcfl_uvel_max              =   9.2886514440853E-03
(PID.TID 0000.0001) %MON advcfl_vvel_max              =   4.4760408131878E-03
(PID.TID 0000.0001) %MON advcfl_wvel_max              =   1.5532480361167E-02
(PID.TID 0000.0001) %MON advcfl_W_hf_max              =   1.5532480361167E-02
(PID.TID 0000.0001) %MON pe_b_mean                    =  -6.8030139806735E-01
(PID.TID 0000.0001) %MON ke_max                       =   4.1177436973956E-03
(PID.TID 0000.0001) %MON ke_mean                      =   4.5220237337100E-06
(PID.TID 0000.0001) %MON ke_vol                       =   4.6183397296480E+12
(PID.TID 0000.0001) // =======================================================
(PID.TID 0000.0001) // End MONITOR dynamic field statistics
(PID.TID 0000.0001) // =======================================================
(PID.TID 0000.0001) // =======================================================
(PID.TID 0000.0001) // Begin OBCS MONITOR field statistics
(PID.TID 0000.0001) // =======================================================
(PID.TID 0000.0001) %MON obc_N_vVel_max               =   1.5052912043605E-07
(PID.TID 0000.0001) %MON obc_N_vVel_min               =   1.5052912043604E-07
(PID.TID 0000.0001) %MON obc_N_vVel_mean              =   1.5052912043605E-07
(PID.TID 0000.0001) %MON obc_N_vVel_sd                =  -3.4709879829725E-28
(PID.TID 0000.0001) %MON obc_N_vVel_Int               =   9.9349219487790E+00
(PID.TID 0000.0001) // =======================================================
(PID.TID 0000.0001) // End OBCS MONITOR field statistics
(PID.TID 0000.0001) // =======================================================
 cg2d: Sum(rhs),rhsMax =   3.00200782161476E+00  4.53032670262213E+02
(PID.TID 0000.0001)      cg2d_init_res =   8.39016762009231E-06
(PID.TID 0000.0001)      cg2d_iters(min,last) =      -1      81
(PID.TID 0000.0001)      cg2d_last_res =   8.20814799557915E-12
(PID.TID 0000.0001) // =======================================================
(PID.TID 0000.0001) // Begin MONITOR dynamic field statistics
(PID.TID 0000.0001) // =======================================================
(PID.TID 0000.0001) %MON time_tsnumber                =                  1712
(PID.TID 0000.0001) %MON time_secondsf                =   1.7120000000000E+05
(PID.TID 0000.0001) %MON dynstat_eta_max              =   5.8004662421227E+00
(PID.TID 0000.0001) %MON dynstat_eta_min              =  -1.4163232569301E+01
(PID.TID 0000.0001) %MON dynstat_eta_mean             =  -2.5185326288411E+00
(PID.TID 0000.0001) %MON dynstat_eta_sd               =   4.9394785128107E+00
(PID.TID 0000.0001) %MON dynstat_eta_del2             =   1.9060422799750E-01
(PID.TID 0000.0001) %MON dynstat_uvel_max             =   2.0815975932660E-02
(PID.TID 0000.0001) %MON dynstat_uvel_min             =  -9.3031574939129E-02
(PID.TID 0000.0001) %MON dynstat_uvel_mean            =   9.7953123203954E-09
(PID.TID 0000.0001) %MON dynstat_uvel_sd              =   2.8028614872012E-03
(PID.TID 0000.0001) %MON dynstat_uvel_del2            =   4.5689068827373E-06
(PID.TID 0000.0001) %MON dynstat_vvel_max             =   4.4800992634309E-02
(PID.TID 0000.0001) %MON dynstat_vvel_min             =  -3.1407116781622E-02
(PID.TID 0000.0001) %MON dynstat_vvel_mean            =   2.2765397485525E-07
(PID.TID 0000.0001) %MON dynstat_vvel_sd              =   1.1697007529499E-03
(PID.TID 0000.0001) %MON dynstat_vvel_del2            =   2.8854004743939E-06
(PID.TID 0000.0001) %MON dynstat_wvel_max             =   3.1096513573199E-03
(PID.TID 0000.0001) %MON dynstat_wvel_min             =  -3.0960514257700E-03
(PID.TID 0000.0001) %MON dynstat_wvel_mean            =   6.9091624056067E-10
(PID.TID 0000.0001) %MON dynstat_wvel_sd              =   5.3896471867441E-05
(PID.TID 0000.0001) %MON dynstat_wvel_del2            =   1.9205215307713E-07
(PID.TID 0000.0001) %MON dynstat_theta_max            =   1.2000000000000E+00
(PID.TID 0000.0001) %MON dynstat_theta_min            =  -1.0000000000000E+00
(PID.TID 0000.0001) %MON dynstat_theta_mean           =   5.6448408611783E-01
(PID.TID 0000.0001) %MON dynstat_theta_sd             =   8.4865739204572E-01
(PID.TID 0000.0001) %MON dynstat_theta_del2           =   7.8906425429665E-06
(PID.TID 0000.0001) %MON dynstat_salt_max             =   3.4700000000000E+01
(PID.TID 0000.0001) %MON dynstat_salt_min             =   3.4000000000000E+01
(PID.TID 0000.0001) %MON dynstat_salt_mean            =   3.4497707751493E+01
(PID.TID 0000.0001) %MON dynstat_salt_sd              =   2.7000729759453E-01
(PID.TID 0000.0001) %MON dynstat_salt_del2            =   3.1318896638272E-06
(PID.TID 0000.0001) %MON advcfl_uvel_max              =   9.3031574939129E-03
(PID.TID 0000.0001) %MON advcfl_vvel_max              =   4.4800992634309E-03
(PID.TID 0000.0001) %MON advcfl_wvel_max              =   1.5548256786599E-02
(PID.TID 0000.0001) %MON advcfl_W_hf_max              =   1.5548256786599E-02
(PID.TID 0000.0001) %MON pe_b_mean                    =  -6.8029665163794E-01
(PID.TID 0000.0001) %MON ke_max                       =   4.1303504158532E-03
(PID.TID 0000.0001) %MON ke_mean                      =   4.5382564612535E-06
(PID.TID 0000.0001) %MON ke_vol                       =   4.6183398228508E+12
(PID.TID 0000.0001) // =======================================================
(PID.TID 0000.0001) // End MONITOR dynamic field statistics
(PID.TID 0000.0001) // =======================================================
(PID.TID 0000.0001) // =======================================================
(PID.TID 0000.0001) // Begin OBCS MONITOR field statistics
(PID.TID 0000.0001) // =======================================================
(PID.TID 0000.0001) %MON obc_N_vVel_max               =   1.5102059994163E-07
(PID.TID 0000.0001) %MON obc_N_vVel_min               =   1.5102059994163E-07
(PID.TID 0000.0001) %MON obc_N_vVel_mean              =   1.5102059994163E-07
(PID.TID 0000.0001) %MON obc_N_vVel_sd                =  -6.3424416779769E-28
(PID.TID 0000.0001) %MON obc_N_vVel_Int               =   9.9673595961477E+00
(PID.TID 0000.0001) // =======================================================
(PID.TID 0000.0001) // End OBCS MONITOR field statistics
(PID.TID 0000.0001) // =======================================================
 cg2d: Sum(rhs),rhsMax =   3.00198925141144E+00  4.53032642344489E+02
(PID.TID 0000.0001)      cg2d_init_res =   8.40070323739642E-06
(PID.TID 0000.0001)      cg2d_iters(min,last) =      -1      81
(PID.TID 0000.0001)      cg2d_last_res =   8.22041190161489E-12
(PID.TID 0000.0001) // =======================================================
(PID.TID 0000.0001) // Begin MONITOR dynamic field statistics
(PID.TID 0000.0001) // =======================================================
(PID.TID 0000.0001) %MON time_tsnumber                =                  1713
(PID.TID 0000.0001) %MON time_secondsf                =   1.7130000000000E+05
(PID.TID 0000.0001) %MON dynstat_eta_max              =   5.8004702135285E+00
(PID.TID 0000.0001) %MON dynstat_eta_min              =  -1.4163228578079E+01
(PID.TID 0000.0001) %MON dynstat_eta_mean             =  -2.5185168941790E+00
(PID.TID 0000.0001) %MON dynstat_eta_sd               =   4.9394739252783E+00
(PID.TID 0000.0001) %MON dynstat_eta_del2             =   1.9060427300614E-01
(PID.TID 0000.0001) %MON dynstat_uvel_max             =   2.0848848534764E-02
(PID.TID 0000.0001) %MON dynstat_uvel_min             =  -9.3176652029985E-02
(PID.TID 0000.0001) %MON dynstat_uvel_mean            =   9.7998694265117E-09
(PID.TID 0000.0001) %MON dynstat_uvel_sd              =   2.8079171834396E-03
(PID.TID 0000.0001) %MON dynstat_uvel_del2            =   4.5782144454312E-06
(PID.TID 0000.0001) %MON dynstat_vvel_max             =   4.4841556426864E-02
(PID.TID 0000.0001) %MON dynstat_vvel_min             =  -3.1472189435640E-02
(PID.TID 0000.0001) %MON dynstat_vvel_mean            =   2.2851893326951E-07
(PID.TID 0000.0001) %MON dynstat_vvel_sd              =   1.1717182112513E-03
(PID.TID 0000.0001) %MON dynstat_vvel_del2            =   2.8897079795398E-06
(PID.TID 0000.0001) %MON dynstat_wvel_max             =   3.1128026031192E-03
(PID.TID 0000.0001) %MON dynstat_wvel_min             =  -3.0950763542543E-03
(PID.TID 0000.0001) %MON dynstat_wvel_mean            =   6.9283602271247E-10
(PID.TID 0000.0001) %MON dynstat_wvel_sd              =   5.3962693280330E-05
(PID.TID 0000.0001) %MON dynstat_wvel_del2            =   1.9227845607504E-07
(PID.TID 0000.0001) %MON dynstat_theta_max            =   1.2000000000000E+00
(PID.TID 0000.0001) %MON dynstat_theta_min            =  -1.0000000000000E+00
(PID.TID 0000.0001) %MON dynstat_theta_mean           =   5.6448232423195E-01
(PID.TID 0000.0001) %MON dynstat_theta_sd             =   8.4865667288785E-01
(PID.TID 0000.0001) %MON dynstat_theta_del2           =   7.9019016764680E-06
(PID.TID 0000.0001) %MON dynstat_salt_max             =   3.4700000000000E+01
(PID.TID 0000.0001) %MON dynstat_salt_min             =   3.4000000000000E+01
(PID.TID 0000.0001) %MON dynstat_salt_mean            =   3.4497707046715E+01
(PID.TID 0000.0001) %MON dynstat_salt_sd              =   2.7000703495079E-01
(PID.TID 0000.0001) %MON dynstat_salt_del2            =   3.1363923008959E-06
(PID.TID 0000.0001) %MON advcfl_uvel_max              =   9.3176652029985E-03
(PID.TID 0000.0001) %MON advcfl_vvel_max              =   4.4841556426864E-03
(PID.TID 0000.0001) %MON advcfl_wvel_max              =   1.5564013015596E-02
(PID.TID 0000.0001) %MON advcfl_W_hf_max              =   1.5564013015596E-02
(PID.TID 0000.0001) %MON pe_b_mean                    =  -6.8029189857301E-01
(PID.TID 0000.0001) %MON ke_max                       =   4.1429734110527E-03
(PID.TID 0000.0001) %MON ke_mean                      =   4.5545348292552E-06
(PID.TID 0000.0001) %MON ke_vol                       =   4.6183399161847E+12
(PID.TID 0000.0001) // =======================================================
(PID.TID 0000.0001) // End MONITOR dynamic field statistics
(PID.TID 0000.0001) // =======================================================
(PID.TID 0000.0001) // =======================================================
(PID.TID 0000.0001) // Begin OBCS MONITOR field statistics
(PID.TID 0000.0001) // =======================================================
(PID.TID 0000.0001) %MON obc_N_vVel_max               =   1.5166931978885E-07
(PID.TID 0000.0001) %MON obc_N_vVel_min               =   1.5166931978885E-07
(PID.TID 0000.0001) %MON obc_N_vVel_mean              =   1.5166931978885E-07
(PID.TID 0000.0001) %MON obc_N_vVel_sd                =   4.0155095445930E-14
(PID.TID 0000.0001) %MON obc_N_vVel_Int               =   1.0010175106064E+01
(PID.TID 0000.0001) // =======================================================
(PID.TID 0000.0001) // End OBCS MONITOR field statistics
(PID.TID 0000.0001) // =======================================================
 cg2d: Sum(rhs),rhsMax =   3.00197065529857E+00  4.53032614427409E+02
(PID.TID 0000.0001)      cg2d_init_res =   8.41124445336572E-06
(PID.TID 0000.0001)      cg2d_iters(min,last) =      -1      81
(PID.TID 0000.0001)      cg2d_last_res =   8.23269975551043E-12
(PID.TID 0000.0001) // =======================================================
(PID.TID 0000.0001) // Begin MONITOR dynamic field statistics
(PID.TID 0000.0001) // =======================================================
(PID.TID 0000.0001) %MON time_tsnumber                =                  1714
(PID.TID 0000.0001) %MON time_secondsf                =   1.7140000000000E+05
(PID.TID 0000.0001) %MON dynstat_eta_max              =   5.8004741894899E+00
(PID.TID 0000.0001) %MON dynstat_eta_min              =  -1.4163224583631E+01
(PID.TID 0000.0001) %MON dynstat_eta_mean             =  -2.5185011377857E+00
(PID.TID 0000.0001) %MON dynstat_eta_sd               =   4.9394693312699E+00
(PID.TID 0000.0001) %MON dynstat_eta_del2             =   1.9060431806187E-01
(PID.TID 0000.0001) %MON dynstat_uvel_max             =   2.0881715920785E-02
(PID.TID 0000.0001) %MON dynstat_uvel_min             =  -9.3321744874544E-02
(PID.TID 0000.0001) %MON dynstat_uvel_mean            =   9.8044210002886E-09
(PID.TID 0000.0001) %MON dynstat_uvel_sd              =   2.8129776428905E-03
(PID.TID 0000.0001) %MON dynstat_uvel_del2            =   4.5875349442132E-06
(PID.TID 0000.0001) %MON dynstat_vvel_max             =   4.4882099447465E-02
(PID.TID 0000.0001) %MON dynstat_vvel_min             =  -3.1537269938529E-02
(PID.TID 0000.0001) %MON dynstat_vvel_mean            =   2.2955023777478E-07
(PID.TID 0000.0001) %MON dynstat_vvel_sd              =   1.1737385737244E-03
(PID.TID 0000.0001) %MON dynstat_vvel_del2            =   2.8940197719098E-06
(PID.TID 0000.0001) %MON dynstat_wvel_max             =   3.1159498005008E-03
(PID.TID 0000.0001) %MON dynstat_wvel_min             =  -3.0940920376923E-03
(PID.TID 0000.0001) %MON dynstat_wvel_mean            =   6.9472441907166E-10
(PID.TID 0000.0001) %MON dynstat_wvel_sd              =   5.4029073005871E-05
(PID.TID 0000.0001) %MON dynstat_wvel_del2            =   1.9250559593504E-07
(PID.TID 0000.0001) %MON dynstat_theta_max            =   1.2000000000000E+00
(PID.TID 0000.0001) %MON dynstat_theta_min            =  -1.0000000000000E+00
(PID.TID 0000.0001) %MON dynstat_theta_mean           =   5.6448055984647E-01
(PID.TID 0000.0001) %MON dynstat_theta_sd             =   8.4865595301090E-01
(PID.TID 0000.0001) %MON dynstat_theta_del2           =   7.9131692842097E-06
(PID.TID 0000.0001) %MON dynstat_salt_max             =   3.4700000000000E+01
(PID.TID 0000.0001) %MON dynstat_salt_min             =   3.4000000000000E+01
(PID.TID 0000.0001) %MON dynstat_salt_mean            =   3.4497706340936E+01
(PID.TID 0000.0001) %MON dynstat_salt_sd              =   2.7000677208602E-01
(PID.TID 0000.0001) %MON dynstat_salt_del2            =   3.1408984756938E-06
(PID.TID 0000.0001) %MON advcfl_uvel_max              =   9.3321744874544E-03
(PID.TID 0000.0001) %MON advcfl_vvel_max              =   4.4882099447465E-03
(PID.TID 0000.0001) %MON advcfl_wvel_max              =   1.5579749002504E-02
(PID.TID 0000.0001) %MON advcfl_W_hf_max              =   1.5579749002504E-02
(PID.TID 0000.0001) %MON pe_b_mean                    =  -6.8028713890418E-01
(PID.TID 0000.0001) %MON ke_max                       =   4.1556126915354E-03
(PID.TID 0000.0001) %MON ke_mean                      =   4.5708589024646E-06
(PID.TID 0000.0001) %MON ke_vol                       =   4.6183400096486E+12
(PID.TID 0000.0001) // =======================================================
(PID.TID 0000.0001) // End MONITOR dynamic field statistics
(PID.TID 0000.0001) // =======================================================
(PID.TID 0000.0001) // =======================================================
(PID.TID 0000.0001) // Begin OBCS MONITOR field statistics
(PID.TID 0000.0001) // =======================================================
(PID.TID 0000.0001) %MON obc_N_vVel_max               =   1.5247589386657E-07
(PID.TID 0000.0001) %MON obc_N_vVel_min               =   1.5247589386657E-07
(PID.TID 0000.0001) %MON obc_N_vVel_mean              =   1.5247589386657E-07
(PID.TID 0000.0001) %MON obc_N_vVel_sd                =  -1.3536853133593E-27
(PID.TID 0000.0001) %MON obc_N_vVel_Int               =   1.0063408995193E+01
(PID.TID 0000.0001) // =======================================================
(PID.TID 0000.0001) // End OBCS MONITOR field statistics
(PID.TID 0000.0001) // =======================================================
 cg2d: Sum(rhs),rhsMax =   3.00195203346522E+00  4.53032586511021E+02
(PID.TID 0000.0001)      cg2d_init_res =   8.42178889190090E-06
(PID.TID 0000.0001)      cg2d_iters(min,last) =      -1      81
(PID.TID 0000.0001)      cg2d_last_res =   8.24497374435291E-12
(PID.TID 0000.0001) // =======================================================
(PID.TID 0000.0001) // Begin MONITOR dynamic field statistics
(PID.TID 0000.0001) // =======================================================
(PID.TID 0000.0001) %MON time_tsnumber                =                  1715
(PID.TID 0000.0001) %MON time_secondsf                =   1.7150000000000E+05
(PID.TID 0000.0001) %MON dynstat_eta_max              =   5.8004781696779E+00
(PID.TID 0000.0001) %MON dynstat_eta_min              =  -1.4163220586372E+01
(PID.TID 0000.0001) %MON dynstat_eta_mean             =  -2.5184853598199E+00
(PID.TID 0000.0001) %MON dynstat_eta_sd               =   4.9394647308309E+00
(PID.TID 0000.0001) %MON dynstat_eta_del2             =   1.9060436316460E-01
(PID.TID 0000.0001) %MON dynstat_uvel_max             =   2.0914577874429E-02
(PID.TID 0000.0001) %MON dynstat_uvel_min             =  -9.3466852643832E-02
(PID.TID 0000.0001) %MON dynstat_uvel_mean            =   9.8091573091579E-09
(PID.TID 0000.0001) %MON dynstat_uvel_sd              =   2.8180428587918E-03
(PID.TID 0000.0001) %MON dynstat_uvel_del2            =   4.5968683671362E-06
(PID.TID 0000.0001) %MON dynstat_vvel_max             =   4.4922621632437E-02
(PID.TID 0000.0001) %MON dynstat_vvel_min             =  -3.1602357518409E-02
(PID.TID 0000.0001) %MON dynstat_vvel_mean            =   2.3074164801911E-07
(PID.TID 0000.0001) %MON dynstat_vvel_sd              =   1.1757618341017E-03
(PID.TID 0000.0001) %MON dynstat_vvel_del2            =   2.8983357941754E-06
(PID.TID 0000.0001) %MON dynstat_wvel_max             =   3.1190929404730E-03
(PID.TID 0000.0001) %MON dynstat_wvel_min             =  -3.0930986420097E-03
(PID.TID 0000.0001) %MON dynstat_wvel_mean            =   6.9655384350396E-10
(PID.TID 0000.0001) %MON dynstat_wvel_sd              =   5.4095564274981E-05
(PID.TID 0000.0001) %MON dynstat_wvel_del2            =   1.9273337740562E-07
(PID.TID 0000.0001) %MON dynstat_theta_max            =   1.2000000000000E+00
(PID.TID 0000.0001) %MON dynstat_theta_min            =  -1.0000000000000E+00
(PID.TID 0000.0001) %MON dynstat_theta_mean           =   5.6447879296118E-01
(PID.TID 0000.0001) %MON dynstat_theta_sd             =   8.4865523241724E-01
(PID.TID 0000.0001) %MON dynstat_theta_del2           =   7.9244425042716E-06
(PID.TID 0000.0001) %MON dynstat_salt_max             =   3.4700000000000E+01
(PID.TID 0000.0001) %MON dynstat_salt_min             =   3.4000000000000E+01
(PID.TID 0000.0001) %MON dynstat_salt_mean            =   3.4497705634155E+01
(PID.TID 0000.0001) %MON dynstat_salt_sd              =   2.7000650900049E-01
(PID.TID 0000.0001) %MON dynstat_salt_del2            =   3.1454082024695E-06
(PID.TID 0000.0001) %MON advcfl_uvel_max              =   9.3466852643832E-03
(PID.TID 0000.0001) %MON advcfl_vvel_max              =   4.4922621632437E-03
(PID.TID 0000.0001) %MON advcfl_wvel_max              =   1.5595464702365E-02
(PID.TID 0000.0001) %MON advcfl_W_hf_max              =   1.5595464702365E-02
(PID.TID 0000.0001) %MON pe_b_mean                    =  -6.8028237266151E-01
(PID.TID 0000.0001) %MON ke_max                       =   4.1682682669178E-03
(PID.TID 0000.0001) %MON ke_mean                      =   4.5872287433692E-06
(PID.TID 0000.0001) %MON ke_vol                       =   4.6183401032416E+12
(PID.TID 0000.0001) // =======================================================
(PID.TID 0000.0001) // End MONITOR dynamic field statistics
(PID.TID 0000.0001) // =======================================================
(PID.TID 0000.0001) // =======================================================
(PID.TID 0000.0001) // Begin OBCS MONITOR field statistics
(PID.TID 0000.0001) // =======================================================
(PID.TID 0000.0001) %MON obc_N_vVel_max               =   1.5343681924504E-07
(PID.TID 0000.0001) %MON obc_N_vVel_min               =   1.5343681924504E-07
(PID.TID 0000.0001) %MON obc_N_vVel_mean              =   1.5343681924504E-07
(PID.TID 0000.0001) %MON obc_N_vVel_sd                =   3.7430161202866E-14
(PID.TID 0000.0001) %MON obc_N_vVel_Int               =   1.0126830070173E+01
(PID.TID 0000.0001) // =======================================================
(PID.TID 0000.0001) // End OBCS MONITOR field statistics
(PID.TID 0000.0001) // =======================================================
 cg2d: Sum(rhs),rhsMax =   3.00193338609430E+00  4.53032558594834E+02
(PID.TID 0000.0001)      cg2d_init_res =   8.43225059483888E-06
(PID.TID 0000.0001)      cg2d_iters(min,last) =      -1      81
(PID.TID 0000.0001)      cg2d_last_res =   8.25718110221007E-12
(PID.TID 0000.0001) // =======================================================
(PID.TID 0000.0001) // Begin MONITOR dynamic field statistics
(PID.TID 0000.0001) // =======================================================
(PID.TID 0000.0001) %MON time_tsnumber                =                  1716
(PID.TID 0000.0001) %MON time_secondsf                =   1.7160000000000E+05
(PID.TID 0000.0001) %MON dynstat_eta_max              =   5.8004821537587E+00
(PID.TID 0000.0001) %MON dynstat_eta_min              =  -1.4163216586707E+01
(PID.TID 0000.0001) %MON dynstat_eta_mean             =  -2.5184695604325E+00
(PID.TID 0000.0001) %MON dynstat_eta_sd               =   4.9394601239842E+00
(PID.TID 0000.0001) %MON dynstat_eta_del2             =   1.9060440831310E-01
(PID.TID 0000.0001) %MON dynstat_uvel_max             =   2.0947434176814E-02
(PID.TID 0000.0001) %MON dynstat_uvel_min             =  -9.3611974509447E-02
(PID.TID 0000.0001) %MON dynstat_uvel_mean            =   9.8142183991052E-09
(PID.TID 0000.0001) %MON dynstat_uvel_sd              =   2.8231128248238E-03
(PID.TID 0000.0001) %MON dynstat_uvel_del2            =   4.6062146967633E-06
(PID.TID 0000.0001) %MON dynstat_vvel_max             =   4.4963122916754E-02
(PID.TID 0000.0001) %MON dynstat_vvel_min             =  -3.1667451390398E-02
(PID.TID 0000.0001) %MON dynstat_vvel_mean            =   2.3208306779223E-07
(PID.TID 0000.0001) %MON dynstat_vvel_sd              =   1.1777879858243E-03
(PID.TID 0000.0001) %MON dynstat_vvel_del2            =   2.9026559826202E-06
(PID.TID 0000.0001) %MON dynstat_wvel_max             =   3.1222320141596E-03
(PID.TID 0000.0001) %MON dynstat_wvel_min             =  -3.0920963315686E-03
(PID.TID 0000.0001) %MON dynstat_wvel_mean            =   6.9830060005394E-10
(PID.TID 0000.0001) %MON dynstat_wvel_sd              =   5.4162116304905E-05
(PID.TID 0000.0001) %MON dynstat_wvel_del2            =   1.9296158399877E-07
(PID.TID 0000.0001) %MON dynstat_theta_max            =   1.2000000000000E+00
(PID.TID 0000.0001) %MON dynstat_theta_min            =  -1.0000000000000E+00
(PID.TID 0000.0001) %MON dynstat_theta_mean           =   5.6447702357581E-01
(PID.TID 0000.0001) %MON dynstat_theta_sd             =   8.4865451110585E-01
(PID.TID 0000.0001) %MON dynstat_theta_del2           =   7.9357234657471E-06
(PID.TID 0000.0001) %MON dynstat_salt_max             =   3.4700000000000E+01
(PID.TID 0000.0001) %MON dynstat_salt_min             =   3.4000000000000E+01
(PID.TID 0000.0001) %MON dynstat_salt_mean            =   3.4497704926373E+01
(PID.TID 0000.0001) %MON dynstat_salt_sd              =   2.7000624569442E-01
(PID.TID 0000.0001) %MON dynstat_salt_del2            =   3.1499215016974E-06
(PID.TID 0000.0001) %MON advcfl_uvel_max              =   9.3611974509447E-03
(PID.TID 0000.0001) %MON advcfl_vvel_max              =   4.4963122916754E-03
(PID.TID 0000.0001) %MON advcfl_wvel_max              =   1.5611160070798E-02
(PID.TID 0000.0001) %MON advcfl_W_hf_max              =   1.5611160070798E-02
(PID.TID 0000.0001) %MON pe_b_mean                    =  -6.8027759987264E-01
(PID.TID 0000.0001) %MON ke_max                       =   4.1809401476292E-03
(PID.TID 0000.0001) %MON ke_mean                      =   4.6036444152447E-06
(PID.TID 0000.0001) %MON ke_vol                       =   4.6183401969627E+12
(PID.TID 0000.0001) // =======================================================
(PID.TID 0000.0001) // End MONITOR dynamic field statistics
(PID.TID 0000.0001) // =======================================================
(PID.TID 0000.0001) // =======================================================
(PID.TID 0000.0001) // Begin OBCS MONITOR field statistics
(PID.TID 0000.0001) // =======================================================
(PID.TID 0000.0001) %MON obc_N_vVel_max               =   1.5454482911637E-07
(PID.TID 0000.0001) %MON obc_N_vVel_min               =   1.5454482911637E-07
(PID.TID 0000.0001) %MON obc_N_vVel_mean              =   1.5454482911637E-07
(PID.TID 0000.0001) %MON obc_N_vVel_sd                =  -6.1215606245151E-28
(PID.TID 0000.0001) %MON obc_N_vVel_Int               =   1.0199958721681E+01
(PID.TID 0000.0001) // =======================================================
(PID.TID 0000.0001) // End OBCS MONITOR field statistics
(PID.TID 0000.0001) // =======================================================
 cg2d: Sum(rhs),rhsMax =   3.00191471335792E+00  4.53032530677808E+02
(PID.TID 0000.0001)      cg2d_init_res =   8.44277294839265E-06
(PID.TID 0000.0001)      cg2d_iters(min,last) =      -1      81
(PID.TID 0000.0001)      cg2d_last_res =   8.26942643942944E-12
(PID.TID 0000.0001) // =======================================================
(PID.TID 0000.0001) // Begin MONITOR dynamic field statistics
(PID.TID 0000.0001) // =======================================================
(PID.TID 0000.0001) %MON time_tsnumber                =                  1717
(PID.TID 0000.0001) %MON time_secondsf                =   1.7170000000000E+05
(PID.TID 0000.0001) %MON dynstat_eta_max              =   5.8004861414165E+00
(PID.TID 0000.0001) %MON dynstat_eta_min              =  -1.4163212585020E+01
(PID.TID 0000.0001) %MON dynstat_eta_mean             =  -2.5184537397620E+00
(PID.TID 0000.0001) %MON dynstat_eta_sd               =   4.9394555107720E+00
(PID.TID 0000.0001) %MON dynstat_eta_del2             =   1.9060445350803E-01
(PID.TID 0000.0001) %MON dynstat_uvel_max             =   2.0980281396112E-02
(PID.TID 0000.0001) %MON dynstat_uvel_min             =  -9.3757109654199E-02
(PID.TID 0000.0001) %MON dynstat_uvel_mean            =   9.8197646109873E-09
(PID.TID 0000.0001) %MON dynstat_uvel_sd              =   2.8281875343063E-03
(PID.TID 0000.0001) %MON dynstat_uvel_del2            =   4.6155739191934E-06
(PID.TID 0000.0001) %MON dynstat_vvel_max             =   4.5003603233781E-02
(PID.TID 0000.0001) %MON dynstat_vvel_min             =  -3.1732550771039E-02
(PID.TID 0000.0001) %MON dynstat_vvel_mean            =   2.3356075325189E-07
(PID.TID 0000.0001) %MON dynstat_vvel_sd              =   1.1798170212636E-03
(PID.TID 0000.0001) %MON dynstat_vvel_del2            =   2.9069802696409E-06
(PID.TID 0000.0001) %MON dynstat_wvel_max             =   3.1253670128131E-03
(PID.TID 0000.0001) %MON dynstat_wvel_min             =  -3.0910852688895E-03
(PID.TID 0000.0001) %MON dynstat_wvel_mean            =   6.9993923560821E-10
(PID.TID 0000.0001) %MON dynstat_wvel_sd              =   5.4228676986651E-05
(PID.TID 0000.0001) %MON dynstat_wvel_del2            =   1.9318998531961E-07
(PID.TID 0000.0001) %MON dynstat_theta_max            =   1.2000000000000E+00
(PID.TID 0000.0001) %MON dynstat_theta_min            =  -1.0000000000000E+00
(PID.TID 0000.0001) %MON dynstat_theta_mean           =   5.6447525168996E-01
(PID.TID 0000.0001) %MON dynstat_theta_sd             =   8.4865378907627E-01
(PID.TID 0000.0001) %MON dynstat_theta_del2           =   7.9470130650888E-06
(PID.TID 0000.0001) %MON dynstat_salt_max             =   3.4700000000000E+01
(PID.TID 0000.0001) %MON dynstat_salt_min             =   3.4000000000000E+01
(PID.TID 0000.0001) %MON dynstat_salt_mean            =   3.4497704217590E+01
(PID.TID 0000.0001) %MON dynstat_salt_sd              =   2.7000598216852E-01
(PID.TID 0000.0001) %MON dynstat_salt_del2            =   3.1544383423820E-06
(PID.TID 0000.0001) %MON advcfl_uvel_max              =   9.3757109654199E-03
(PID.TID 0000.0001) %MON advcfl_vvel_max              =   4.5003603233781E-03
(PID.TID 0000.0001) %MON advcfl_wvel_max              =   1.5626835064066E-02
(PID.TID 0000.0001) %MON advcfl_W_hf_max              =   1.5626835064066E-02
(PID.TID 0000.0001) %MON pe_b_mean                    =  -6.8027282056203E-01
(PID.TID 0000.0001) %MON ke_max                       =   4.1936283453452E-03
(PID.TID 0000.0001) %MON ke_mean                      =   4.6201059790156E-06
(PID.TID 0000.0001) %MON ke_vol                       =   4.6183402908110E+12
(PID.TID 0000.0001) // =======================================================
(PID.TID 0000.0001) // End MONITOR dynamic field statistics
(PID.TID 0000.0001) // =======================================================
(PID.TID 0000.0001) // =======================================================
(PID.TID 0000.0001) // Begin OBCS MONITOR field statistics
(PID.TID 0000.0001) // =======================================================
(PID.TID 0000.0001) %MON obc_N_vVel_max               =   1.5578918664760E-07
(PID.TID 0000.0001) %MON obc_N_vVel_min               =   1.5578918664760E-07
(PID.TID 0000.0001) %MON obc_N_vVel_mean              =   1.5578918664760E-07
(PID.TID 0000.0001) %MON obc_N_vVel_sd                =   2.5309189142275E-14
(PID.TID 0000.0001) %MON obc_N_vVel_Int               =   1.0282086318742E+01
(PID.TID 0000.0001) // =======================================================
(PID.TID 0000.0001) // End OBCS MONITOR field statistics
(PID.TID 0000.0001) // =======================================================
 cg2d: Sum(rhs),rhsMax =   3.00189601541354E+00  4.53032502758368E+02
(PID.TID 0000.0001)      cg2d_init_res =   8.45332241186310E-06
(PID.TID 0000.0001)      cg2d_iters(min,last) =      -1      81
(PID.TID 0000.0001)      cg2d_last_res =   8.28170474633173E-12
(PID.TID 0000.0001) // =======================================================
(PID.TID 0000.0001) // Begin MONITOR dynamic field statistics
(PID.TID 0000.0001) // =======================================================
(PID.TID 0000.0001) %MON time_tsnumber                =                  1718
(PID.TID 0000.0001) %MON time_secondsf                =   1.7180000000000E+05
(PID.TID 0000.0001) %MON dynstat_eta_max              =   5.8004901323491E+00
(PID.TID 0000.0001) %MON dynstat_eta_min              =  -1.4163208581658E+01
(PID.TID 0000.0001) %MON dynstat_eta_mean             =  -2.5184378979318E+00
(PID.TID 0000.0001) %MON dynstat_eta_sd               =   4.9394508912229E+00
(PID.TID 0000.0001) %MON dynstat_eta_del2             =   1.9060449874960E-01
(PID.TID 0000.0001) %MON dynstat_uvel_max             =   2.1013119379619E-02
(PID.TID 0000.0001) %MON dynstat_uvel_min             =  -9.3902257265601E-02
(PID.TID 0000.0001) %MON dynstat_uvel_mean            =   9.8259681082999E-09
(PID.TID 0000.0001) %MON dynstat_uvel_sd              =   2.8332669805353E-03
(PID.TID 0000.0001) %MON dynstat_uvel_del2            =   4.6249460223271E-06
(PID.TID 0000.0001) %MON dynstat_vvel_max             =   4.5044062515582E-02
(PID.TID 0000.0001) %MON dynstat_vvel_min             =  -3.1797654872115E-02
(PID.TID 0000.0001) %MON dynstat_vvel_mean            =   2.3515767445482E-07
(PID.TID 0000.0001) %MON dynstat_vvel_sd              =   1.1818489330248E-03
(PID.TID 0000.0001) %MON dynstat_vvel_del2            =   2.9113085943401E-06
(PID.TID 0000.0001) %MON dynstat_wvel_max             =   3.1284979277753E-03
(PID.TID 0000.0001) %MON dynstat_wvel_min             =  -3.0900656166682E-03
(PID.TID 0000.0001) %MON dynstat_wvel_mean            =   7.0144846974462E-10
(PID.TID 0000.0001) %MON dynstat_wvel_sd              =   5.4295195699641E-05
(PID.TID 0000.0001) %MON dynstat_wvel_del2            =   1.9341834974645E-07
(PID.TID 0000.0001) %MON dynstat_theta_max            =   1.2000000000000E+00
(PID.TID 0000.0001) %MON dynstat_theta_min            =  -1.0000000000000E+00
(PID.TID 0000.0001) %MON dynstat_theta_mean           =   5.6447347730319E-01
(PID.TID 0000.0001) %MON dynstat_theta_sd             =   8.4865306632948E-01
(PID.TID 0000.0001) %MON dynstat_theta_del2           =   7.9583113334563E-06
(PID.TID 0000.0001) %MON dynstat_salt_max             =   3.4700000000000E+01
(PID.TID 0000.0001) %MON dynstat_salt_min             =   3.4000000000000E+01
(PID.TID 0000.0001) %MON dynstat_salt_mean            =   3.4497703507804E+01
(PID.TID 0000.0001) %MON dynstat_salt_sd              =   2.7000571842301E-01
(PID.TID 0000.0001) %MON dynstat_salt_del2            =   3.1589587310277E-06
(PID.TID 0000.0001) %MON advcfl_uvel_max              =   9.3902257265601E-03
(PID.TID 0000.0001) %MON advcfl_vvel_max              =   4.5044062515582E-03
(PID.TID 0000.0001) %MON advcfl_wvel_max              =   1.5642489638877E-02
(PID.TID 0000.0001) %MON advcfl_W_hf_max              =   1.5642489638877E-02
(PID.TID 0000.0001) %MON pe_b_mean                    =  -6.8026803475037E-01
(PID.TID 0000.0001) %MON ke_max                       =   4.2063328725629E-03
(PID.TID 0000.0001) %MON ke_mean                      =   4.6366134957128E-06
(PID.TID 0000.0001) %MON ke_vol                       =   4.6183403847858E+12
(PID.TID 0000.0001) // =======================================================
(PID.TID 0000.0001) // End MONITOR dynamic field statistics
(PID.TID 0000.0001) // =======================================================
(PID.TID 0000.0001) // =======================================================
(PID.TID 0000.0001) // Begin OBCS MONITOR field statistics
(PID.TID 0000.0001) // =======================================================
(PID.TID 0000.0001) %MON obc_N_vVel_max               =   1.5715589778754E-07
(PID.TID 0000.0001) %MON obc_N_vVel_min               =   1.5715589778753E-07
(PID.TID 0000.0001) %MON obc_N_vVel_mean              =   1.5715589778753E-07
(PID.TID 0000.0001) %MON obc_N_vVel_sd                =   4.2632564145606E-14
(PID.TID 0000.0001) %MON obc_N_vVel_Int               =   1.0372289253977E+01
(PID.TID 0000.0001) // =======================================================
(PID.TID 0000.0001) // End OBCS MONITOR field statistics
(PID.TID 0000.0001) // =======================================================
 cg2d: Sum(rhs),rhsMax =   3.00187729239959E+00  4.53032474834426E+02
(PID.TID 0000.0001)      cg2d_init_res =   8.46387338316908E-06
(PID.TID 0000.0001)      cg2d_iters(min,last) =      -1      81
(PID.TID 0000.0001)      cg2d_last_res =   8.29398370271516E-12
(PID.TID 0000.0001) // =======================================================
(PID.TID 0000.0001) // Begin MONITOR dynamic field statistics
(PID.TID 0000.0001) // =======================================================
(PID.TID 0000.0001) %MON time_tsnumber                =                  1719
(PID.TID 0000.0001) %MON time_secondsf                =   1.7190000000000E+05
(PID.TID 0000.0001) %MON dynstat_eta_max              =   5.8004941262912E+00
(PID.TID 0000.0001) %MON dynstat_eta_min              =  -1.4163204576939E+01
(PID.TID 0000.0001) %MON dynstat_eta_mean             =  -2.5184220350464E+00
(PID.TID 0000.0001) %MON dynstat_eta_sd               =   4.9394462653523E+00
(PID.TID 0000.0001) %MON dynstat_eta_del2             =   1.9060454403767E-01
(PID.TID 0000.0001) %MON dynstat_uvel_max             =   2.1045947978371E-02
(PID.TID 0000.0001) %MON dynstat_uvel_min             =  -9.4047416536831E-02
(PID.TID 0000.0001) %MON dynstat_uvel_mean            =   9.8329731158927E-09
(PID.TID 0000.0001) %MON dynstat_uvel_sd              =   2.8383511568237E-03
(PID.TID 0000.0001) %MON dynstat_uvel_del2            =   4.6343309939867E-06
(PID.TID 0000.0001) %MON dynstat_vvel_max             =   4.5084500692786E-02
(PID.TID 0000.0001) %MON dynstat_vvel_min             =  -3.1862762899980E-02
(PID.TID 0000.0001) %MON dynstat_vvel_mean            =   2.3685394628337E-07
(PID.TID 0000.0001) %MON dynstat_vvel_sd              =   1.1838837147187E-03
(PID.TID 0000.0001) %MON dynstat_vvel_del2            =   2.9156409019293E-06
(PID.TID 0000.0001) %MON dynstat_wvel_max             =   3.1316247505149E-03
(PID.TID 0000.0001) %MON dynstat_wvel_min             =  -3.0890375359052E-03
(PID.TID 0000.0001) %MON dynstat_wvel_mean            =   7.0281022179817E-10
(PID.TID 0000.0001) %MON dynstat_wvel_sd              =   5.4361626163675E-05
(PID.TID 0000.0001) %MON dynstat_wvel_del2            =   1.9364645935914E-07
(PID.TID 0000.0001) %MON dynstat_theta_max            =   1.2000000000000E+00
(PID.TID 0000.0001) %MON dynstat_theta_min            =  -1.0000000000000E+00
(PID.TID 0000.0001) %MON dynstat_theta_mean           =   5.6447170041495E-01
(PID.TID 0000.0001) %MON dynstat_theta_sd             =   8.4865234286671E-01
(PID.TID 0000.0001) %MON dynstat_theta_del2           =   7.9696182853206E-06
(PID.TID 0000.0001) %MON dynstat_salt_max             =   3.4700000000000E+01
(PID.TID 0000.0001) %MON dynstat_salt_min             =   3.4000000000000E+01
(PID.TID 0000.0001) %MON dynstat_salt_mean            =   3.4497702797017E+01
(PID.TID 0000.0001) %MON dynstat_salt_sd              =   2.7000545445861E-01
(PID.TID 0000.0001) %MON dynstat_salt_del2            =   3.1634826718561E-06
(PID.TID 0000.0001) %MON advcfl_uvel_max              =   9.4047416536831E-03
(PID.TID 0000.0001) %MON advcfl_vvel_max              =   4.5084500692786E-03
(PID.TID 0000.0001) %MON advcfl_wvel_max              =   1.5658123752574E-02
(PID.TID 0000.0001) %MON advcfl_W_hf_max              =   1.5658123752574E-02
(PID.TID 0000.0001) %MON pe_b_mean                    =  -6.8026324245398E-01
(PID.TID 0000.0001) %MON ke_max                       =   4.2190537426354E-03
(PID.TID 0000.0001) %MON ke_mean                      =   4.6531670275009E-06
(PID.TID 0000.0001) %MON ke_vol                       =   4.6183404788863E+12
(PID.TID 0000.0001) // =======================================================
(PID.TID 0000.0001) // End MONITOR dynamic field statistics
(PID.TID 0000.0001) // =======================================================
(PID.TID 0000.0001) // =======================================================
(PID.TID 0000.0001) // Begin OBCS MONITOR field statistics
(PID.TID 0000.0001) // =======================================================
(PID.TID 0000.0001) %MON obc_N_vVel_max               =   1.5862802907176E-07
(PID.TID 0000.0001) %MON obc_N_vVel_min               =   1.5862802907175E-07
(PID.TID 0000.0001) %MON obc_N_vVel_mean              =   1.5862802907175E-07
(PID.TID 0000.0001) %MON obc_N_vVel_sd                =   3.8674025861023E-14
(PID.TID 0000.0001) %MON obc_N_vVel_Int               =   1.0469449918736E+01
(PID.TID 0000.0001) // =======================================================
(PID.TID 0000.0001) // End OBCS MONITOR field statistics
(PID.TID 0000.0001) // =======================================================
 cg2d: Sum(rhs),rhsMax =   3.00185854443145E+00  4.53032446903459E+02
(PID.TID 0000.0001)      cg2d_init_res =   8.47442534846869E-06
(PID.TID 0000.0001)      cg2d_iters(min,last) =      -1      81
(PID.TID 0000.0001)      cg2d_last_res =   8.30626329450344E-12
(PID.TID 0000.0001) // =======================================================
(PID.TID 0000.0001) // Begin MONITOR dynamic field statistics
(PID.TID 0000.0001) // =======================================================
(PID.TID 0000.0001) %MON time_tsnumber                =                  1720
(PID.TID 0000.0001) %MON time_secondsf                =   1.7200000000000E+05
(PID.TID 0000.0001) %MON dynstat_eta_max              =   5.8004981229825E+00
(PID.TID 0000.0001) %MON dynstat_eta_min              =  -1.4163200571165E+01
(PID.TID 0000.0001) %MON dynstat_eta_mean             =  -2.5184061511886E+00
(PID.TID 0000.0001) %MON dynstat_eta_sd               =   4.9394416331661E+00
(PID.TID 0000.0001) %MON dynstat_eta_del2             =   1.9060458937207E-01
(PID.TID 0000.0001) %MON dynstat_uvel_max             =   2.1078767060111E-02
(PID.TID 0000.0001) %MON dynstat_uvel_min             =  -9.4192586671625E-02
(PID.TID 0000.0001) %MON dynstat_uvel_mean            =   9.8408937053980E-09
(PID.TID 0000.0001) %MON dynstat_uvel_sd              =   2.8434400564935E-03
(PID.TID 0000.0001) %MON dynstat_uvel_del2            =   4.6437288218908E-06
(PID.TID 0000.0001) %MON dynstat_vvel_max             =   4.5124917694752E-02
(PID.TID 0000.0001) %MON dynstat_vvel_min             =  -3.1927874059235E-02
(PID.TID 0000.0001) %MON dynstat_vvel_mean            =   2.3862730766952E-07
(PID.TID 0000.0001) %MON dynstat_vvel_sd              =   1.1859213615365E-03
(PID.TID 0000.0001) %MON dynstat_vvel_del2            =   2.9199771464696E-06
(PID.TID 0000.0001) %MON dynstat_wvel_max             =   3.1347474726161E-03
(PID.TID 0000.0001) %MON dynstat_wvel_min             =  -3.0880011860562E-03
(PID.TID 0000.0001) %MON dynstat_wvel_mean            =   7.0400999889946E-10
(PID.TID 0000.0001) %MON dynstat_wvel_sd              =   5.4427928954584E-05
(PID.TID 0000.0001) %MON dynstat_wvel_del2            =   1.9387412194781E-07
(PID.TID 0000.0001) %MON dynstat_theta_max            =   1.2000000000000E+00
(PID.TID 0000.0001) %MON dynstat_theta_min            =  -1.0000000000000E+00
(PID.TID 0000.0001) %MON dynstat_theta_mean           =   5.6446992102456E-01
(PID.TID 0000.0001) %MON dynstat_theta_sd             =   8.4865161868930E-01
(PID.TID 0000.0001) %MON dynstat_theta_del2           =   7.9809330346848E-06
(PID.TID 0000.0001) %MON dynstat_salt_max             =   3.4700000000000E+01
(PID.TID 0000.0001) %MON dynstat_salt_min             =   3.4000000000000E+01
(PID.TID 0000.0001) %MON dynstat_salt_mean            =   3.4497702085227E+01
(PID.TID 0000.0001) %MON dynstat_salt_sd              =   2.7000519027585E-01
(PID.TID 0000.0001) %MON dynstat_salt_del2            =   3.1680101634537E-06
(PID.TID 0000.0001) %MON advcfl_uvel_max              =   9.4192586671625E-03
(PID.TID 0000.0001) %MON advcfl_vvel_max              =   4.5124917694752E-03
(PID.TID 0000.0001) %MON advcfl_wvel_max              =   1.5673737363080E-02
(PID.TID 0000.0001) %MON advcfl_W_hf_max              =   1.5673737363080E-02
(PID.TID 0000.0001) %MON pe_b_mean                    =  -6.8025844368425E-01
(PID.TID 0000.0001) %MON ke_max                       =   4.2317909699682E-03
(PID.TID 0000.0001) %MON ke_mean                      =   4.6697666383482E-06
(PID.TID 0000.0001) %MON ke_vol                       =   4.6183405731118E+12
(PID.TID 0000.0001) // =======================================================
(PID.TID 0000.0001) // End MONITOR dynamic field statistics
(PID.TID 0000.0001) // =======================================================
(PID.TID 0000.0001) // =======================================================
(PID.TID 0000.0001) // Begin OBCS MONITOR field statistics
(PID.TID 0000.0001) // =======================================================
(PID.TID 0000.0001) %MON obc_N_vVel_max               =   1.6018608352171E-07
(PID.TID 0000.0001) %MON obc_N_vVel_min               =   1.6018608352171E-07
(PID.TID 0000.0001) %MON obc_N_vVel_mean              =   1.6018608352171E-07
(PID.TID 0000.0001) %MON obc_N_vVel_sd                =  -1.8554008490798E-27
(PID.TID 0000.0001) %MON obc_N_vVel_Int               =   1.0572281512433E+01
(PID.TID 0000.0001) // =======================================================
(PID.TID 0000.0001) // End OBCS MONITOR field statistics
(PID.TID 0000.0001) // =======================================================
 cg2d: Sum(rhs),rhsMax =   3.00183977159888E+00  4.53032418962522E+02
(PID.TID 0000.0001)      cg2d_init_res =   8.48504067016611E-06
(PID.TID 0000.0001)      cg2d_iters(min,last) =      -1      81
(PID.TID 0000.0001)      cg2d_last_res =   8.31858166368541E-12
(PID.TID 0000.0001) // =======================================================
(PID.TID 0000.0001) // Begin MONITOR dynamic field statistics
(PID.TID 0000.0001) // =======================================================
(PID.TID 0000.0001) %MON time_tsnumber                =                  1721
(PID.TID 0000.0001) %MON time_secondsf                =   1.7210000000000E+05
(PID.TID 0000.0001) %MON dynstat_eta_max              =   5.8005021222173E+00
(PID.TID 0000.0001) %MON dynstat_eta_min              =  -1.4163196564574E+01
(PID.TID 0000.0001) %MON dynstat_eta_mean             =  -2.5183902464173E+00
(PID.TID 0000.0001) %MON dynstat_eta_sd               =   4.9394369946571E+00
(PID.TID 0000.0001) %MON dynstat_eta_del2             =   1.9060463475234E-01
(PID.TID 0000.0001) %MON dynstat_uvel_max             =   2.1111576475106E-02
(PID.TID 0000.0001) %MON dynstat_uvel_min             =  -9.4337766885431E-02
(PID.TID 0000.0001) %MON dynstat_uvel_mean            =   9.8497965021271E-09
(PID.TID 0000.0001) %MON dynstat_uvel_sd              =   2.8485336727319E-03
(PID.TID 0000.0001) %MON dynstat_uvel_del2            =   4.6531394919065E-06
(PID.TID 0000.0001) %MON dynstat_vvel_max             =   4.5165313449697E-02
(PID.TID 0000.0001) %MON dynstat_vvel_min             =  -3.1992987558912E-02
(PID.TID 0000.0001) %MON dynstat_vvel_mean            =   2.4045365287284E-07
(PID.TID 0000.0001) %MON dynstat_vvel_sd              =   1.1879618708570E-03
(PID.TID 0000.0001) %MON dynstat_vvel_del2            =   2.9243172936127E-06
(PID.TID 0000.0001) %MON dynstat_wvel_max             =   3.1378660857635E-03
(PID.TID 0000.0001) %MON dynstat_wvel_min             =  -3.0869567251327E-03
(PID.TID 0000.0001) %MON dynstat_wvel_mean            =   7.0503794375658E-10
(PID.TID 0000.0001) %MON dynstat_wvel_sd              =   5.4494073588114E-05
(PID.TID 0000.0001) %MON dynstat_wvel_del2            =   1.9410118182206E-07
(PID.TID 0000.0001) %MON dynstat_theta_max            =   1.2000000000000E+00
(PID.TID 0000.0001) %MON dynstat_theta_min            =  -1.0000000000000E+00
(PID.TID 0000.0001) %MON dynstat_theta_mean           =   5.6446813913121E-01
(PID.TID 0000.0001) %MON dynstat_theta_sd             =   8.4865089379862E-01
(PID.TID 0000.0001) %MON dynstat_theta_del2           =   7.9922555506841E-06
(PID.TID 0000.0001) %MON dynstat_salt_max             =   3.4700000000000E+01
(PID.TID 0000.0001) %MON dynstat_salt_min             =   3.4000000000000E+01
(PID.TID 0000.0001) %MON dynstat_salt_mean            =   3.4497701372434E+01
(PID.TID 0000.0001) %MON dynstat_salt_sd              =   2.7000492587616E-01
(PID.TID 0000.0001) %MON dynstat_salt_del2            =   3.1725394706767E-06
(PID.TID 0000.0001) %MON advcfl_uvel_max              =   9.4337766885431E-03
(PID.TID 0000.0001) %MON advcfl_vvel_max              =   4.5165313449697E-03
(PID.TID 0000.0001) %MON advcfl_wvel_max              =   1.5689330428818E-02
(PID.TID 0000.0001) %MON advcfl_W_hf_max              =   1.5689330428818E-02
(PID.TID 0000.0001) %MON pe_b_mean                    =  -6.8025363844738E-01
(PID.TID 0000.0001) %MON ke_max                       =   4.2445445697635E-03
(PID.TID 0000.0001) %MON ke_mean                      =   4.6864123943631E-06
(PID.TID 0000.0001) %MON ke_vol                       =   4.6183406674619E+12
(PID.TID 0000.0001) // =======================================================
(PID.TID 0000.0001) // End MONITOR dynamic field statistics
(PID.TID 0000.0001) // =======================================================
(PID.TID 0000.0001) // =======================================================
(PID.TID 0000.0001) // Begin OBCS MONITOR field statistics
(PID.TID 0000.0001) // =======================================================
(PID.TID 0000.0001) %MON obc_N_vVel_max               =   1.6180847191416E-07
(PID.TID 0000.0001) %MON obc_N_vVel_min               =   1.6180847191416E-07
(PID.TID 0000.0001) %MON obc_N_vVel_mean              =   1.6180847191416E-07
(PID.TID 0000.0001) %MON obc_N_vVel_sd                =   3.4627569593258E-14
(PID.TID 0000.0001) %MON obc_N_vVel_Int               =   1.0679359146335E+01
(PID.TID 0000.0001) // =======================================================
(PID.TID 0000.0001) // End OBCS MONITOR field statistics
(PID.TID 0000.0001) // =======================================================
 cg2d: Sum(rhs),rhsMax =   3.00182097396338E+00  4.53032391008306E+02
(PID.TID 0000.0001)      cg2d_init_res =   8.49566345233119E-06
(PID.TID 0000.0001)      cg2d_iters(min,last) =      -1      81
(PID.TID 0000.0001)      cg2d_last_res =   8.33069418313567E-12
(PID.TID 0000.0001) // =======================================================
(PID.TID 0000.0001) // Begin MONITOR dynamic field statistics
(PID.TID 0000.0001) // =======================================================
(PID.TID 0000.0001) %MON time_tsnumber                =                  1722
(PID.TID 0000.0001) %MON time_secondsf                =   1.7220000000000E+05
(PID.TID 0000.0001) %MON dynstat_eta_max              =   5.8005061238063E+00
(PID.TID 0000.0001) %MON dynstat_eta_min              =  -1.4163192557362E+01
(PID.TID 0000.0001) %MON dynstat_eta_mean             =  -2.5183743207658E+00
(PID.TID 0000.0001) %MON dynstat_eta_sd               =   4.9394323498536E+00
(PID.TID 0000.0001) %MON dynstat_eta_del2             =   1.9060468018090E-01
(PID.TID 0000.0001) %MON dynstat_uvel_max             =   2.1144376061175E-02
(PID.TID 0000.0001) %MON dynstat_uvel_min             =  -9.4482956395890E-02
(PID.TID 0000.0001) %MON dynstat_uvel_mean            =   9.8598130742232E-09
(PID.TID 0000.0001) %MON dynstat_uvel_sd              =   2.8536319975110E-03
(PID.TID 0000.0001) %MON dynstat_uvel_del2            =   4.6625629933876E-06
(PID.TID 0000.0001) %MON dynstat_vvel_max             =   4.5205687889591E-02
(PID.TID 0000.0001) %MON dynstat_vvel_min             =  -3.2058102601724E-02
(PID.TID 0000.0001) %MON dynstat_vvel_mean            =   2.4230754198680E-07
(PID.TID 0000.0001) %MON dynstat_vvel_sd              =   1.1900052404078E-03
(PID.TID 0000.0001) %MON dynstat_vvel_del2            =   2.9286613269191E-06
(PID.TID 0000.0001) %MON dynstat_wvel_max             =   3.1409805820950E-03
(PID.TID 0000.0001) %MON dynstat_wvel_min             =  -3.0859043077696E-03
(PID.TID 0000.0001) %MON dynstat_wvel_mean            =   7.0588368199300E-10
(PID.TID 0000.0001) %MON dynstat_wvel_sd              =   5.4560039587724E-05
(PID.TID 0000.0001) %MON dynstat_wvel_del2            =   1.9432751772297E-07
(PID.TID 0000.0001) %MON dynstat_theta_max            =   1.2000000000000E+00
(PID.TID 0000.0001) %MON dynstat_theta_min            =  -1.0000000000000E+00
(PID.TID 0000.0001) %MON dynstat_theta_mean           =   5.6446635473398E-01
(PID.TID 0000.0001) %MON dynstat_theta_sd             =   8.4865016819801E-01
(PID.TID 0000.0001) %MON dynstat_theta_del2           =   8.0035902839938E-06
(PID.TID 0000.0001) %MON dynstat_salt_max             =   3.4700000000000E+01
(PID.TID 0000.0001) %MON dynstat_salt_min             =   3.4000000000000E+01
(PID.TID 0000.0001) %MON dynstat_salt_mean            =   3.4497700658637E+01
(PID.TID 0000.0001) %MON dynstat_salt_sd              =   2.7000466125958E-01
(PID.TID 0000.0001) %MON dynstat_salt_del2            =   3.1770712889982E-06
(PID.TID 0000.0001) %MON advcfl_uvel_max              =   9.4482956395890E-03
(PID.TID 0000.0001) %MON advcfl_vvel_max              =   4.5205687889591E-03
(PID.TID 0000.0001) %MON advcfl_wvel_max              =   1.5704902910475E-02
(PID.TID 0000.0001) %MON advcfl_W_hf_max              =   1.5704902910475E-02
(PID.TID 0000.0001) %MON pe_b_mean                    =  -6.8024882674406E-01
(PID.TID 0000.0001) %MON ke_max                       =   4.2573145581956E-03
(PID.TID 0000.0001) %MON ke_mean                      =   4.7031043585984E-06
(PID.TID 0000.0001) %MON ke_vol                       =   4.6183407619363E+12
(PID.TID 0000.0001) // =======================================================
(PID.TID 0000.0001) // End MONITOR dynamic field statistics
(PID.TID 0000.0001) // =======================================================
(PID.TID 0000.0001) // =======================================================
(PID.TID 0000.0001) // Begin OBCS MONITOR field statistics
(PID.TID 0000.0001) // =======================================================
(PID.TID 0000.0001) %MON obc_N_vVel_max               =   1.6347204540848E-07
(PID.TID 0000.0001) %MON obc_N_vVel_min               =   1.6347204540848E-07
(PID.TID 0000.0001) %MON obc_N_vVel_mean              =   1.6347204540848E-07
(PID.TID 0000.0001) %MON obc_N_vVel_sd                =  -1.9248206087393E-28
(PID.TID 0000.0001) %MON obc_N_vVel_Int               =   1.0789154996960E+01
(PID.TID 0000.0001) // =======================================================
(PID.TID 0000.0001) // End OBCS MONITOR field statistics
(PID.TID 0000.0001) // =======================================================
 cg2d: Sum(rhs),rhsMax =   3.00180215155583E+00  4.53032363037261E+02
(PID.TID 0000.0001)      cg2d_init_res =   8.50616008940287E-06
(PID.TID 0000.0001)      cg2d_iters(min,last) =      -1      81
(PID.TID 0000.0001)      cg2d_last_res =   8.34280437087602E-12
(PID.TID 0000.0001) // =======================================================
(PID.TID 0000.0001) // Begin MONITOR dynamic field statistics
(PID.TID 0000.0001) // =======================================================
(PID.TID 0000.0001) %MON time_tsnumber                =                  1723
(PID.TID 0000.0001) %MON time_secondsf                =   1.7230000000000E+05
(PID.TID 0000.0001) %MON dynstat_eta_max              =   5.8005101276126E+00
(PID.TID 0000.0001) %MON dynstat_eta_min              =  -1.4163188549701E+01
(PID.TID 0000.0001) %MON dynstat_eta_mean             =  -2.5183583742401E+00
(PID.TID 0000.0001) %MON dynstat_eta_sd               =   4.9394276987110E+00
(PID.TID 0000.0001) %MON dynstat_eta_del2             =   1.9060472565608E-01
(PID.TID 0000.0001) %MON dynstat_uvel_max             =   2.1177165649220E-02
(PID.TID 0000.0001) %MON dynstat_uvel_min             =  -9.4628154423003E-02
(PID.TID 0000.0001) %MON dynstat_uvel_mean            =   9.8710516716045E-09
(PID.TID 0000.0001) %MON dynstat_uvel_sd              =   2.8587350235004E-03
(PID.TID 0000.0001) %MON dynstat_uvel_del2            =   4.6719993132741E-06
(PID.TID 0000.0001) %MON dynstat_vvel_max             =   4.5246040945868E-02
(PID.TID 0000.0001) %MON dynstat_vvel_min             =  -3.2123218384072E-02
(PID.TID 0000.0001) %MON dynstat_vvel_mean            =   2.4416294111244E-07
(PID.TID 0000.0001) %MON dynstat_vvel_sd              =   1.1920514717623E-03
(PID.TID 0000.0001) %MON dynstat_vvel_del2            =   2.9330092419513E-06
(PID.TID 0000.0001) %MON dynstat_wvel_max             =   3.1440909536158E-03
(PID.TID 0000.0001) %MON dynstat_wvel_min             =  -3.0848440782247E-03
(PID.TID 0000.0001) %MON dynstat_wvel_mean            =   7.0654984896479E-10
(PID.TID 0000.0001) %MON dynstat_wvel_sd              =   5.4625818426897E-05
(PID.TID 0000.0001) %MON dynstat_wvel_del2            =   1.9455306987247E-07
(PID.TID 0000.0001) %MON dynstat_theta_max            =   1.2000000000000E+00
(PID.TID 0000.0001) %MON dynstat_theta_min            =  -1.0000000000000E+00
(PID.TID 0000.0001) %MON dynstat_theta_mean           =   5.6446456783174E-01
(PID.TID 0000.0001) %MON dynstat_theta_sd             =   8.4864944188800E-01
(PID.TID 0000.0001) %MON dynstat_theta_del2           =   8.0149354594800E-06
(PID.TID 0000.0001) %MON dynstat_salt_max             =   3.4700000000000E+01
(PID.TID 0000.0001) %MON dynstat_salt_min             =   3.4000000000000E+01
(PID.TID 0000.0001) %MON dynstat_salt_mean            =   3.4497699943837E+01
(PID.TID 0000.0001) %MON dynstat_salt_sd              =   2.7000439642685E-01
(PID.TID 0000.0001) %MON dynstat_salt_del2            =   3.1816066968001E-06
(PID.TID 0000.0001) %MON advcfl_uvel_max              =   9.4628154423003E-03
(PID.TID 0000.0001) %MON advcfl_vvel_max              =   4.5246040945868E-03
(PID.TID 0000.0001) %MON advcfl_wvel_max              =   1.5720454768079E-02
(PID.TID 0000.0001) %MON advcfl_W_hf_max              =   1.5720454768079E-02
(PID.TID 0000.0001) %MON pe_b_mean                    =  -6.8024400856934E-01
(PID.TID 0000.0001) %MON ke_max                       =   4.2701009510361E-03
(PID.TID 0000.0001) %MON ke_mean                      =   4.7198426005576E-06
(PID.TID 0000.0001) %MON ke_vol                       =   4.6183408565347E+12
(PID.TID 0000.0001) // =======================================================
(PID.TID 0000.0001) // End MONITOR dynamic field statistics
(PID.TID 0000.0001) // =======================================================
(PID.TID 0000.0001) // =======================================================
(PID.TID 0000.0001) // Begin OBCS MONITOR field statistics
(PID.TID 0000.0001) // =======================================================
(PID.TID 0000.0001) %MON obc_N_vVel_max               =   1.6515264824595E-07
(PID.TID 0000.0001) %MON obc_N_vVel_min               =   1.6515264824595E-07
(PID.TID 0000.0001) %MON obc_N_vVel_mean              =   1.6515264824595E-07
(PID.TID 0000.0001) %MON obc_N_vVel_sd                =  -1.4231050730187E-27
(PID.TID 0000.0001) %MON obc_N_vVel_Int               =   1.0900074784233E+01
(PID.TID 0000.0001) // =======================================================
(PID.TID 0000.0001) // End OBCS MONITOR field statistics
(PID.TID 0000.0001) // =======================================================
 cg2d: Sum(rhs),rhsMax =   3.00178330437593E+00  4.53032335045651E+02
(PID.TID 0000.0001)      cg2d_init_res =   8.51672350558566E-06
(PID.TID 0000.0001)      cg2d_iters(min,last) =      -1      81
(PID.TID 0000.0001)      cg2d_last_res =   8.35511854473102E-12
(PID.TID 0000.0001) // =======================================================
(PID.TID 0000.0001) // Begin MONITOR dynamic field statistics
(PID.TID 0000.0001) // =======================================================
(PID.TID 0000.0001) %MON time_tsnumber                =                  1724
(PID.TID 0000.0001) %MON time_secondsf                =   1.7240000000000E+05
(PID.TID 0000.0001) %MON dynstat_eta_max              =   5.8005141335163E+00
(PID.TID 0000.0001) %MON dynstat_eta_min              =  -1.4163184541694E+01
(PID.TID 0000.0001) %MON dynstat_eta_mean             =  -2.5183424068194E+00
(PID.TID 0000.0001) %MON dynstat_eta_sd               =   4.9394230411818E+00
(PID.TID 0000.0001) %MON dynstat_eta_del2             =   1.9060477117671E-01
(PID.TID 0000.0001) %MON dynstat_uvel_max             =   2.1209945062296E-02
(PID.TID 0000.0001) %MON dynstat_uvel_min             =  -9.4773360200037E-02
(PID.TID 0000.0001) %MON dynstat_uvel_mean            =   9.8834814631314E-09
(PID.TID 0000.0001) %MON dynstat_uvel_sd              =   2.8638427440001E-03
(PID.TID 0000.0001) %MON dynstat_uvel_del2            =   4.6814484399264E-06
(PID.TID 0000.0001) %MON dynstat_vvel_max             =   4.5286372541122E-02
(PID.TID 0000.0001) %MON dynstat_vvel_min             =  -3.2188334103317E-02
(PID.TID 0000.0001) %MON dynstat_vvel_mean            =   2.4599376864338E-07
(PID.TID 0000.0001) %MON dynstat_vvel_sd              =   1.1941005700585E-03
(PID.TID 0000.0001) %MON dynstat_vvel_del2            =   2.9373610457191E-06
(PID.TID 0000.0001) %MON dynstat_wvel_max             =   3.1471971924753E-03
(PID.TID 0000.0001) %MON dynstat_wvel_min             =  -3.0837761755798E-03
(PID.TID 0000.0001) %MON dynstat_wvel_mean            =   7.0703948984042E-10
(PID.TID 0000.0001) %MON dynstat_wvel_sd              =   5.4691413218693E-05
(PID.TID 0000.0001) %MON dynstat_wvel_del2            =   1.9477783204419E-07
(PID.TID 0000.0001) %MON dynstat_theta_max            =   1.2000000000000E+00
(PID.TID 0000.0001) %MON dynstat_theta_min            =  -1.0000000000000E+00
(PID.TID 0000.0001) %MON dynstat_theta_mean           =   5.6446277842326E-01
(PID.TID 0000.0001) %MON dynstat_theta_sd             =   8.4864871486873E-01
(PID.TID 0000.0001) %MON dynstat_theta_del2           =   8.0262891117292E-06
(PID.TID 0000.0001) %MON dynstat_salt_max             =   3.4700000000000E+01
(PID.TID 0000.0001) %MON dynstat_salt_min             =   3.4000000000000E+01
(PID.TID 0000.0001) %MON dynstat_salt_mean            =   3.4497699228033E+01
(PID.TID 0000.0001) %MON dynstat_salt_sd              =   2.7000413137848E-01
(PID.TID 0000.0001) %MON dynstat_salt_del2            =   3.1861456802734E-06
(PID.TID 0000.0001) %MON advcfl_uvel_max              =   9.4773360200037E-03
(PID.TID 0000.0001) %MON advcfl_vvel_max              =   4.5286372541122E-03
(PID.TID 0000.0001) %MON advcfl_wvel_max              =   1.5735985962376E-02
(PID.TID 0000.0001) %MON advcfl_W_hf_max              =   1.5735985962376E-02
(PID.TID 0000.0001) %MON pe_b_mean                    =  -6.8023918391282E-01
(PID.TID 0000.0001) %MON ke_max                       =   4.2829037658109E-03
(PID.TID 0000.0001) %MON ke_mean                      =   4.7366271957280E-06
(PID.TID 0000.0001) %MON ke_vol                       =   4.6183409512570E+12
(PID.TID 0000.0001) // =======================================================
(PID.TID 0000.0001) // End MONITOR dynamic field statistics
(PID.TID 0000.0001) // =======================================================
(PID.TID 0000.0001) // =======================================================
(PID.TID 0000.0001) // Begin OBCS MONITOR field statistics
(PID.TID 0000.0001) // =======================================================
(PID.TID 0000.0001) %MON obc_N_vVel_max               =   1.6682566920108E-07
(PID.TID 0000.0001) %MON obc_N_vVel_min               =   1.6682566920108E-07
(PID.TID 0000.0001) %MON obc_N_vVel_mean              =   1.6682566920108E-07
(PID.TID 0000.0001) %MON obc_N_vVel_sd                =   3.0354398977712E-14
(PID.TID 0000.0001) %MON obc_N_vVel_Int               =   1.1010494167271E+01
(PID.TID 0000.0001) // =======================================================
(PID.TID 0000.0001) // End OBCS MONITOR field statistics
(PID.TID 0000.0001) // =======================================================
 cg2d: Sum(rhs),rhsMax =   3.00176443239203E+00  4.53032307029598E+02
(PID.TID 0000.0001)      cg2d_init_res =   8.52730974122184E-06
(PID.TID 0000.0001)      cg2d_iters(min,last) =      -1      81
(PID.TID 0000.0001)      cg2d_last_res =   8.36744902116079E-12
(PID.TID 0000.0001) // =======================================================
(PID.TID 0000.0001) // Begin MONITOR dynamic field statistics
(PID.TID 0000.0001) // =======================================================
(PID.TID 0000.0001) %MON time_tsnumber                =                  1725
(PID.TID 0000.0001) %MON time_secondsf                =   1.7250000000000E+05
(PID.TID 0000.0001) %MON dynstat_eta_max              =   5.8005181414416E+00
(PID.TID 0000.0001) %MON dynstat_eta_min              =  -1.4163180533416E+01
(PID.TID 0000.0001) %MON dynstat_eta_mean             =  -2.5183264184555E+00
(PID.TID 0000.0001) %MON dynstat_eta_sd               =   4.9394183772295E+00
(PID.TID 0000.0001) %MON dynstat_eta_del2             =   1.9060481674278E-01
(PID.TID 0000.0001) %MON dynstat_uvel_max             =   2.1242714124728E-02
(PID.TID 0000.0001) %MON dynstat_uvel_min             =  -9.4918572968730E-02
(PID.TID 0000.0001) %MON dynstat_uvel_mean            =   9.8970164688904E-09
(PID.TID 0000.0001) %MON dynstat_uvel_sd              =   2.8689551523656E-03
(PID.TID 0000.0001) %MON dynstat_uvel_del2            =   4.6909103610420E-06
(PID.TID 0000.0001) %MON dynstat_vvel_max             =   4.5326682599538E-02
(PID.TID 0000.0001) %MON dynstat_vvel_min             =  -3.2253448950215E-02
(PID.TID 0000.0001) %MON dynstat_vvel_mean            =   2.4777446894580E-07
(PID.TID 0000.0001) %MON dynstat_vvel_sd              =   1.1961525429167E-03
(PID.TID 0000.0001) %MON dynstat_vvel_del2            =   2.9417167567069E-06
(PID.TID 0000.0001) %MON dynstat_wvel_max             =   3.1502992906392E-03
(PID.TID 0000.0001) %MON dynstat_wvel_min             =  -3.0827007374063E-03
(PID.TID 0000.0001) %MON dynstat_wvel_mean            =   7.0735927022876E-10
(PID.TID 0000.0001) %MON dynstat_wvel_sd              =   5.4756838123979E-05
(PID.TID 0000.0001) %MON dynstat_wvel_del2            =   1.9500184745277E-07
(PID.TID 0000.0001) %MON dynstat_theta_max            =   1.2000000000000E+00
(PID.TID 0000.0001) %MON dynstat_theta_min            =  -1.0000000000000E+00
(PID.TID 0000.0001) %MON dynstat_theta_mean           =   5.6446098650714E-01
(PID.TID 0000.0001) %MON dynstat_theta_sd             =   8.4864798714155E-01
(PID.TID 0000.0001) %MON dynstat_theta_del2           =   8.0376511795758E-06
(PID.TID 0000.0001) %MON dynstat_salt_max             =   3.4700000000000E+01
(PID.TID 0000.0001) %MON dynstat_salt_min             =   3.4000000000000E+01
(PID.TID 0000.0001) %MON dynstat_salt_mean            =   3.4497698511224E+01
(PID.TID 0000.0001) %MON dynstat_salt_sd              =   2.7000386611536E-01
(PID.TID 0000.0001) %MON dynstat_salt_del2            =   3.1906881811695E-06
(PID.TID 0000.0001) %MON advcfl_uvel_max              =   9.4918572968730E-03
(PID.TID 0000.0001) %MON advcfl_vvel_max              =   4.5326682599538E-03
(PID.TID 0000.0001) %MON advcfl_wvel_max              =   1.5751496453196E-02
(PID.TID 0000.0001) %MON advcfl_W_hf_max              =   1.5751496453196E-02
(PID.TID 0000.0001) %MON pe_b_mean                    =  -6.8023435275872E-01
(PID.TID 0000.0001) %MON ke_max                       =   4.2957230223928E-03
(PID.TID 0000.0001) %MON ke_mean                      =   4.7534582227195E-06
(PID.TID 0000.0001) %MON ke_vol                       =   4.6183410461035E+12
(PID.TID 0000.0001) // =======================================================
(PID.TID 0000.0001) // End MONITOR dynamic field statistics
(PID.TID 0000.0001) // =======================================================
(PID.TID 0000.0001) // =======================================================
(PID.TID 0000.0001) // Begin OBCS MONITOR field statistics
(PID.TID 0000.0001) // =======================================================
(PID.TID 0000.0001) %MON obc_N_vVel_max               =   1.6846660098466E-07
(PID.TID 0000.0001) %MON obc_N_vVel_min               =   1.6846660098465E-07
(PID.TID 0000.0001) %MON obc_N_vVel_mean              =   1.6846660098465E-07
(PID.TID 0000.0001) %MON obc_N_vVel_sd                =   4.4408920985006E-14
(PID.TID 0000.0001) %MON obc_N_vVel_Int               =   1.1118795664987E+01
(PID.TID 0000.0001) // =======================================================
(PID.TID 0000.0001) // End OBCS MONITOR field statistics
(PID.TID 0000.0001) // =======================================================
 cg2d: Sum(rhs),rhsMax =   3.00174553554086E+00  4.53032278985215E+02
(PID.TID 0000.0001)      cg2d_init_res =   8.53788676475605E-06
(PID.TID 0000.0001)      cg2d_iters(min,last) =      -1      81
(PID.TID 0000.0001)      cg2d_last_res =   8.37976046843699E-12
(PID.TID 0000.0001) // =======================================================
(PID.TID 0000.0001) // Begin MONITOR dynamic field statistics
(PID.TID 0000.0001) // =======================================================
(PID.TID 0000.0001) %MON time_tsnumber                =                  1726
(PID.TID 0000.0001) %MON time_secondsf                =   1.7260000000000E+05
(PID.TID 0000.0001) %MON dynstat_eta_max              =   5.8005221513600E+00
(PID.TID 0000.0001) %MON dynstat_eta_min              =  -1.4163176524899E+01
(PID.TID 0000.0001) %MON dynstat_eta_mean             =  -2.5183104090736E+00
(PID.TID 0000.0001) %MON dynstat_eta_sd               =   4.9394137068078E+00
(PID.TID 0000.0001) %MON dynstat_eta_del2             =   1.9060486235411E-01
(PID.TID 0000.0001) %MON dynstat_uvel_max             =   2.1275472628932E-02
(PID.TID 0000.0001) %MON dynstat_uvel_min             =  -9.5063791983957E-02
(PID.TID 0000.0001) %MON dynstat_uvel_mean            =   9.9115655642410E-09
(PID.TID 0000.0001) %MON dynstat_uvel_sd              =   2.8740722416386E-03
(PID.TID 0000.0001) %MON dynstat_uvel_del2            =   4.7003850660303E-06
(PID.TID 0000.0001) %MON dynstat_vvel_max             =   4.5366971044947E-02
(PID.TID 0000.0001) %MON dynstat_vvel_min             =  -3.2318562109911E-02
(PID.TID 0000.0001) %MON dynstat_vvel_mean            =   2.4948060961834E-07
(PID.TID 0000.0001) %MON dynstat_vvel_sd              =   1.1982074011469E-03
(PID.TID 0000.0001) %MON dynstat_vvel_del2            =   2.9460764143313E-06
(PID.TID 0000.0001) %MON dynstat_wvel_max             =   3.1533972403518E-03
(PID.TID 0000.0001) %MON dynstat_wvel_min             =  -3.0816179006887E-03
(PID.TID 0000.0001) %MON dynstat_wvel_mean            =   7.0752054492483E-10
(PID.TID 0000.0001) %MON dynstat_wvel_sd              =   5.4822118284759E-05
(PID.TID 0000.0001) %MON dynstat_wvel_del2            =   1.9522522145778E-07
(PID.TID 0000.0001) %MON dynstat_theta_max            =   1.2000000000000E+00
(PID.TID 0000.0001) %MON dynstat_theta_min            =  -1.0000000000000E+00
(PID.TID 0000.0001) %MON dynstat_theta_mean           =   5.6445919208183E-01
(PID.TID 0000.0001) %MON dynstat_theta_sd             =   8.4864725870852E-01
(PID.TID 0000.0001) %MON dynstat_theta_del2           =   8.0490215609892E-06
(PID.TID 0000.0001) %MON dynstat_salt_max             =   3.4700000000000E+01
(PID.TID 0000.0001) %MON dynstat_salt_min             =   3.4000000000000E+01
(PID.TID 0000.0001) %MON dynstat_salt_mean            =   3.4497697793409E+01
(PID.TID 0000.0001) %MON dynstat_salt_sd              =   2.7000360063745E-01
(PID.TID 0000.0001) %MON dynstat_salt_del2            =   3.1952333061674E-06
(PID.TID 0000.0001) %MON advcfl_uvel_max              =   9.5063791983957E-03
(PID.TID 0000.0001) %MON advcfl_vvel_max              =   4.5366971044947E-03
(PID.TID 0000.0001) %MON advcfl_wvel_max              =   1.5766986201759E-02
(PID.TID 0000.0001) %MON advcfl_W_hf_max              =   1.5766986201759E-02
(PID.TID 0000.0001) %MON pe_b_mean                    =  -6.8022951508614E-01
(PID.TID 0000.0001) %MON ke_max                       =   4.3085587411771E-03
(PID.TID 0000.0001) %MON ke_mean                      =   4.7703357630974E-06
(PID.TID 0000.0001) %MON ke_vol                       =   4.6183411410744E+12
(PID.TID 0000.0001) // =======================================================
(PID.TID 0000.0001) // End MONITOR dynamic field statistics
(PID.TID 0000.0001) // =======================================================
(PID.TID 0000.0001) // =======================================================
(PID.TID 0000.0001) // Begin OBCS MONITOR field statistics
(PID.TID 0000.0001) // =======================================================
(PID.TID 0000.0001) %MON obc_N_vVel_max               =   1.7005164414467E-07
(PID.TID 0000.0001) %MON obc_N_vVel_min               =   1.7005164414467E-07
(PID.TID 0000.0001) %MON obc_N_vVel_mean              =   1.7005164414467E-07
(PID.TID 0000.0001) %MON obc_N_vVel_sd                =   2.3566036520289E-14
(PID.TID 0000.0001) %MON obc_N_vVel_Int               =   1.1223408513548E+01
(PID.TID 0000.0001) // =======================================================
(PID.TID 0000.0001) // End OBCS MONITOR field statistics
(PID.TID 0000.0001) // =======================================================
 cg2d: Sum(rhs),rhsMax =   3.00172661372919E+00  4.53032250908639E+02
(PID.TID 0000.0001)      cg2d_init_res =   8.54839169591615E-06
(PID.TID 0000.0001)      cg2d_iters(min,last) =      -1      81
(PID.TID 0000.0001)      cg2d_last_res =   8.39208725629888E-12
(PID.TID 0000.0001) // =======================================================
(PID.TID 0000.0001) // Begin MONITOR dynamic field statistics
(PID.TID 0000.0001) // =======================================================
(PID.TID 0000.0001) %MON time_tsnumber                =                  1727
(PID.TID 0000.0001) %MON time_secondsf                =   1.7270000000000E+05
(PID.TID 0000.0001) %MON dynstat_eta_max              =   5.8005261632646E+00
(PID.TID 0000.0001) %MON dynstat_eta_min              =  -1.4163172516116E+01
(PID.TID 0000.0001) %MON dynstat_eta_mean             =  -2.5182943785743E+00
(PID.TID 0000.0001) %MON dynstat_eta_sd               =   4.9394090298504E+00
(PID.TID 0000.0001) %MON dynstat_eta_del2             =   1.9060490800969E-01
(PID.TID 0000.0001) %MON dynstat_uvel_max             =   2.1308220372440E-02
(PID.TID 0000.0001) %MON dynstat_uvel_min             =  -9.5209016509852E-02
(PID.TID 0000.0001) %MON dynstat_uvel_mean            =   9.9270568782077E-09
(PID.TID 0000.0001) %MON dynstat_uvel_sd              =   2.8791940048789E-03
(PID.TID 0000.0001) %MON dynstat_uvel_del2            =   4.7098725431750E-06
(PID.TID 0000.0001) %MON dynstat_vvel_max             =   4.5407237801003E-02
(PID.TID 0000.0001) %MON dynstat_vvel_min             =  -3.2383672768361E-02
(PID.TID 0000.0001) %MON dynstat_vvel_mean            =   2.5108947963118E-07
(PID.TID 0000.0001) %MON dynstat_vvel_sd              =   1.2002651577791E-03
(PID.TID 0000.0001) %MON dynstat_vvel_del2            =   2.9504400664717E-06
(PID.TID 0000.0001) %MON dynstat_wvel_max             =   3.1564910340724E-03
(PID.TID 0000.0001) %MON dynstat_wvel_min             =  -3.0805278289802E-03
(PID.TID 0000.0001) %MON dynstat_wvel_mean            =   7.0753917907654E-10
(PID.TID 0000.0001) %MON dynstat_wvel_sd              =   5.4887287694399E-05
(PID.TID 0000.0001) %MON dynstat_wvel_del2            =   1.9544810450723E-07
(PID.TID 0000.0001) %MON dynstat_theta_max            =   1.2000000000000E+00
(PID.TID 0000.0001) %MON dynstat_theta_min            =  -1.0000000000000E+00
(PID.TID 0000.0001) %MON dynstat_theta_mean           =   5.6445739514563E-01
(PID.TID 0000.0001) %MON dynstat_theta_sd             =   8.4864652957086E-01
(PID.TID 0000.0001) %MON dynstat_theta_del2           =   8.0604001090656E-06
(PID.TID 0000.0001) %MON dynstat_salt_max             =   3.4700000000000E+01
(PID.TID 0000.0001) %MON dynstat_salt_min             =   3.4000000000000E+01
(PID.TID 0000.0001) %MON dynstat_salt_mean            =   3.4497697074589E+01
(PID.TID 0000.0001) %MON dynstat_salt_sd              =   2.7000333494703E-01
(PID.TID 0000.0001) %MON dynstat_salt_del2            =   3.1997828686981E-06
(PID.TID 0000.0001) %MON advcfl_uvel_max              =   9.5209016509852E-03
(PID.TID 0000.0001) %MON advcfl_vvel_max              =   4.5407237801003E-03
(PID.TID 0000.0001) %MON advcfl_wvel_max              =   1.5782455170362E-02
(PID.TID 0000.0001) %MON advcfl_W_hf_max              =   1.5782455170362E-02
(PID.TID 0000.0001) %MON pe_b_mean                    =  -6.8022467086943E-01
(PID.TID 0000.0001) %MON ke_max                       =   4.3214109431047E-03
(PID.TID 0000.0001) %MON ke_mean                      =   4.7872599011820E-06
(PID.TID 0000.0001) %MON ke_vol                       =   4.6183412361701E+12
(PID.TID 0000.0001) // =======================================================
(PID.TID 0000.0001) // End MONITOR dynamic field statistics
(PID.TID 0000.0001) // =======================================================
(PID.TID 0000.0001) // =======================================================
(PID.TID 0000.0001) // Begin OBCS MONITOR field statistics
(PID.TID 0000.0001) // =======================================================
(PID.TID 0000.0001) %MON obc_N_vVel_max               =   1.7155821594285E-07
(PID.TID 0000.0001) %MON obc_N_vVel_min               =   1.7155821594285E-07
(PID.TID 0000.0001) %MON obc_N_vVel_mean              =   1.7155821594285E-07
(PID.TID 0000.0001) %MON obc_N_vVel_sd                =  -4.3545121968200E-28
(PID.TID 0000.0001) %MON obc_N_vVel_Int               =   1.1322842252228E+01
(PID.TID 0000.0001) // =======================================================
(PID.TID 0000.0001) // End OBCS MONITOR field statistics
(PID.TID 0000.0001) // =======================================================
 cg2d: Sum(rhs),rhsMax =   3.00170766683538E+00  4.53032222796135E+02
(PID.TID 0000.0001)      cg2d_init_res =   8.55907658043453E-06
(PID.TID 0000.0001)      cg2d_iters(min,last) =      -1      81
(PID.TID 0000.0001)      cg2d_last_res =   8.40448081487210E-12
(PID.TID 0000.0001) // =======================================================
(PID.TID 0000.0001) // Begin MONITOR dynamic field statistics
(PID.TID 0000.0001) // =======================================================
(PID.TID 0000.0001) %MON time_tsnumber                =                  1728
(PID.TID 0000.0001) %MON time_secondsf                =   1.7280000000000E+05
(PID.TID 0000.0001) %MON dynstat_eta_max              =   5.8005301771829E+00
(PID.TID 0000.0001) %MON dynstat_eta_min              =  -1.4163168507032E+01
(PID.TID 0000.0001) %MON dynstat_eta_mean             =  -2.5182783268345E+00
(PID.TID 0000.0001) %MON dynstat_eta_sd               =   4.9394043463222E+00
(PID.TID 0000.0001) %MON dynstat_eta_del2             =   1.9060495371081E-01
(PID.TID 0000.0001) %MON dynstat_uvel_max             =   2.1340957170184E-02
(PID.TID 0000.0001) %MON dynstat_uvel_min             =  -9.5354245808213E-02
(PID.TID 0000.0001) %MON dynstat_uvel_mean            =   9.9433922750985E-09
(PID.TID 0000.0001) %MON dynstat_uvel_sd              =   2.8843204353000E-03
(PID.TID 0000.0001) %MON dynstat_uvel_del2            =   4.7193727793765E-06
(PID.TID 0000.0001) %MON dynstat_vvel_max             =   4.5447482790882E-02
(PID.TID 0000.0001) %MON dynstat_vvel_min             =  -3.2448780106463E-02
(PID.TID 0000.0001) %MON dynstat_vvel_mean            =   2.5258048507164E-07
(PID.TID 0000.0001) %MON dynstat_vvel_sd              =   1.2023258267088E-03
(PID.TID 0000.0001) %MON dynstat_vvel_del2            =   2.9548077621012E-06
(PID.TID 0000.0001) %MON dynstat_wvel_max             =   3.1595806643322E-03
(PID.TID 0000.0001) %MON dynstat_wvel_min             =  -3.0794306866190E-03
(PID.TID 0000.0001) %MON dynstat_wvel_mean            =   7.0743041520188E-10
(PID.TID 0000.0001) %MON dynstat_wvel_sd              =   5.4952386087442E-05
(PID.TID 0000.0001) %MON dynstat_wvel_del2            =   1.9567066620796E-07
(PID.TID 0000.0001) %MON dynstat_theta_max            =   1.2000000000000E+00
(PID.TID 0000.0001) %MON dynstat_theta_min            =  -1.0000000000000E+00
(PID.TID 0000.0001) %MON dynstat_theta_mean           =   5.6445559569668E-01
(PID.TID 0000.0001) %MON dynstat_theta_sd             =   8.4864579973026E-01
(PID.TID 0000.0001) %MON dynstat_theta_del2           =   8.0717867009992E-06
(PID.TID 0000.0001) %MON dynstat_salt_max             =   3.4700000000000E+01
(PID.TID 0000.0001) %MON dynstat_salt_min             =   3.4000000000000E+01
(PID.TID 0000.0001) %MON dynstat_salt_mean            =   3.4497696354761E+01
(PID.TID 0000.0001) %MON dynstat_salt_sd              =   2.7000306904509E-01
(PID.TID 0000.0001) %MON dynstat_salt_del2            =   3.2043369806734E-06
(PID.TID 0000.0001) %MON advcfl_uvel_max              =   9.5354245808213E-03
(PID.TID 0000.0001) %MON advcfl_vvel_max              =   4.5447482790882E-03
(PID.TID 0000.0001) %MON advcfl_wvel_max              =   1.5797903321661E-02
(PID.TID 0000.0001) %MON advcfl_W_hf_max              =   1.5797903321661E-02
(PID.TID 0000.0001) %MON pe_b_mean                    =  -6.8021982007871E-01
(PID.TID 0000.0001) %MON ke_max                       =   4.3342796498891E-03
(PID.TID 0000.0001) %MON ke_mean                      =   4.8042307228264E-06
(PID.TID 0000.0001) %MON ke_vol                       =   4.6183413313913E+12
(PID.TID 0000.0001) // =======================================================
(PID.TID 0000.0001) // End MONITOR dynamic field statistics
(PID.TID 0000.0001) // =======================================================
(PID.TID 0000.0001) // =======================================================
(PID.TID 0000.0001) // Begin OBCS MONITOR field statistics
(PID.TID 0000.0001) // =======================================================
(PID.TID 0000.0001) %MON obc_N_vVel_max               =   1.7296550496150E-07
(PID.TID 0000.0001) %MON obc_N_vVel_min               =   1.7296550496149E-07
(PID.TID 0000.0001) %MON obc_N_vVel_mean              =   1.7296550496150E-07
(PID.TID 0000.0001) %MON obc_N_vVel_sd                =  -1.3442189824966E-27
(PID.TID 0000.0001) %MON obc_N_vVel_Int               =   1.1415723327459E+01
(PID.TID 0000.0001) // =======================================================
(PID.TID 0000.0001) // End OBCS MONITOR field statistics
(PID.TID 0000.0001) // =======================================================
(PID.TID 0000.0001) %CHECKPOINT      1728 0000001728
 cg2d: Sum(rhs),rhsMax =   3.00168869471164E+00  4.53032194644190E+02
(PID.TID 0000.0001)      cg2d_init_res =   8.56977894726642E-06
(PID.TID 0000.0001)      cg2d_iters(min,last) =      -1      81
(PID.TID 0000.0001)      cg2d_last_res =   8.41688499453303E-12
(PID.TID 0000.0001) // =======================================================
(PID.TID 0000.0001) // Begin MONITOR dynamic field statistics
(PID.TID 0000.0001) // =======================================================
(PID.TID 0000.0001) %MON time_tsnumber                =                  1729
(PID.TID 0000.0001) %MON time_secondsf                =   1.7290000000000E+05
(PID.TID 0000.0001) %MON dynstat_eta_max              =   5.8005341931557E+00
(PID.TID 0000.0001) %MON dynstat_eta_min              =  -1.4163164497561E+01
(PID.TID 0000.0001) %MON dynstat_eta_mean             =  -2.5182622537109E+00
(PID.TID 0000.0001) %MON dynstat_eta_sd               =   4.9393996561614E+00
(PID.TID 0000.0001) %MON dynstat_eta_del2             =   1.9060499945738E-01
(PID.TID 0000.0001) %MON dynstat_uvel_max             =   2.1373682829767E-02
(PID.TID 0000.0001) %MON dynstat_uvel_min             =  -9.5499479151169E-02
(PID.TID 0000.0001) %MON dynstat_uvel_mean            =   9.9604527472267E-09
(PID.TID 0000.0001) %MON dynstat_uvel_sd              =   2.8894515260880E-03
(PID.TID 0000.0001) %MON dynstat_uvel_del2            =   4.7288857614003E-06
(PID.TID 0000.0001) %MON dynstat_vvel_max             =   4.5487705937215E-02
(PID.TID 0000.0001) %MON dynstat_vvel_min             =  -3.2513883297479E-02
(PID.TID 0000.0001) %MON dynstat_vvel_mean            =   2.5393566091517E-07
(PID.TID 0000.0001) %MON dynstat_vvel_sd              =   1.2043894229320E-03
(PID.TID 0000.0001) %MON dynstat_vvel_del2            =   2.9591795548208E-06
(PID.TID 0000.0001) %MON dynstat_wvel_max             =   3.1626661237705E-03
(PID.TID 0000.0001) %MON dynstat_wvel_min             =  -3.0783266365340E-03
(PID.TID 0000.0001) %MON dynstat_wvel_mean            =   7.0721599800349E-10
(PID.TID 0000.0001) %MON dynstat_wvel_sd              =   5.5017457451275E-05
(PID.TID 0000.0001) %MON dynstat_wvel_del2            =   1.9589309999753E-07
(PID.TID 0000.0001) %MON dynstat_theta_max            =   1.2000000000000E+00
(PID.TID 0000.0001) %MON dynstat_theta_min            =  -1.0000000000000E+00
(PID.TID 0000.0001) %MON dynstat_theta_mean           =   5.6445379373300E-01
(PID.TID 0000.0001) %MON dynstat_theta_sd             =   8.4864506918839E-01
(PID.TID 0000.0001) %MON dynstat_theta_del2           =   8.0831811455929E-06
(PID.TID 0000.0001) %MON dynstat_salt_max             =   3.4700000000000E+01
(PID.TID 0000.0001) %MON dynstat_salt_min             =   3.4000000000000E+01
(PID.TID 0000.0001) %MON dynstat_salt_mean            =   3.4497695633926E+01
(PID.TID 0000.0001) %MON dynstat_salt_sd              =   2.7000280293113E-01
(PID.TID 0000.0001) %MON dynstat_salt_del2            =   3.2088943908923E-06
(PID.TID 0000.0001) %MON advcfl_uvel_max              =   9.5499479151169E-03
(PID.TID 0000.0001) %MON advcfl_vvel_max              =   4.5487705937215E-03
(PID.TID 0000.0001) %MON advcfl_wvel_max              =   1.5813330618852E-02
(PID.TID 0000.0001) %MON advcfl_W_hf_max              =   1.5813330618852E-02
(PID.TID 0000.0001) %MON pe_b_mean                    =  -6.8021496268040E-01
(PID.TID 0000.0001) %MON ke_max                       =   4.3471648841337E-03
(PID.TID 0000.0001) %MON ke_mean                      =   4.8212483151997E-06
(PID.TID 0000.0001) %MON ke_vol                       =   4.6183414267386E+12
(PID.TID 0000.0001) // =======================================================
(PID.TID 0000.0001) // End MONITOR dynamic field statistics
(PID.TID 0000.0001) // =======================================================
(PID.TID 0000.0001) // =======================================================
(PID.TID 0000.0001) // Begin OBCS MONITOR field statistics
(PID.TID 0000.0001) // =======================================================
(PID.TID 0000.0001) %MON obc_N_vVel_max               =   1.7425489334545E-07
(PID.TID 0000.0001) %MON obc_N_vVel_min               =   1.7425489334545E-07
(PID.TID 0000.0001) %MON obc_N_vVel_mean              =   1.7425489334545E-07
(PID.TID 0000.0001) %MON obc_N_vVel_sd                =   4.1355174313732E-14
(PID.TID 0000.0001) %MON obc_N_vVel_Int               =   1.1500822960800E+01
(PID.TID 0000.0001) // =======================================================
(PID.TID 0000.0001) // End OBCS MONITOR field statistics
(PID.TID 0000.0001) // =======================================================
(PID.TID 0000.0001) %CHECKPOINT      1729 ckptA
(PID.TID 0000.0001)   Seconds in section "ALL                    [THE_MODEL_MAIN]":
(PID.TID 0000.0001)           User time:   16.987873077392578
(PID.TID 0000.0001)         System time:  0.16681998968124390
(PID.TID 0000.0001)     Wall clock time:   17.168278932571411
(PID.TID 0000.0001)          No. starts:           1
(PID.TID 0000.0001)           No. stops:           1
(PID.TID 0000.0001)   Seconds in section "INITIALISE_FIXED       [THE_MODEL_MAIN]":
(PID.TID 0000.0001)           User time:   2.8395999222993851E-002
(PID.TID 0000.0001)         System time:   9.4600021839141846E-004
(PID.TID 0000.0001)     Wall clock time:   2.9495954513549805E-002
(PID.TID 0000.0001)          No. starts:           1
(PID.TID 0000.0001)           No. stops:           1
(PID.TID 0000.0001)   Seconds in section "THE_MAIN_LOOP          [THE_MODEL_MAIN]":
(PID.TID 0000.0001)           User time:   16.959472263231874
(PID.TID 0000.0001)         System time:  0.16586098074913025
(PID.TID 0000.0001)     Wall clock time:   17.138772010803223
(PID.TID 0000.0001)          No. starts:           1
(PID.TID 0000.0001)           No. stops:           1
(PID.TID 0000.0001)   Seconds in section "INITIALISE_VARIA    [THE_MAIN_LOOP]":
(PID.TID 0000.0001)           User time:   7.7780019491910934E-003
(PID.TID 0000.0001)         System time:   1.8644005060195923E-002
(PID.TID 0000.0001)     Wall clock time:   2.6423215866088867E-002
(PID.TID 0000.0001)          No. starts:           1
(PID.TID 0000.0001)           No. stops:           1
(PID.TID 0000.0001)   Seconds in section "MAIN LOOP           [THE_MAIN_LOOP]":
(PID.TID 0000.0001)           User time:   16.951691355556250
(PID.TID 0000.0001)         System time:  0.14720898866653442
(PID.TID 0000.0001)     Wall clock time:   17.112338066101074
(PID.TID 0000.0001)          No. starts:           1
(PID.TID 0000.0001)           No. stops:           1
(PID.TID 0000.0001)   Seconds in section "MAIN_DO_LOOP        [THE_MAIN_LOOP]":
(PID.TID 0000.0001)           User time:   16.948757182806730
(PID.TID 0000.0001)         System time:  0.14715898036956787
(PID.TID 0000.0001)     Wall clock time:   17.109327793121338
(PID.TID 0000.0001)          No. starts:         865
(PID.TID 0000.0001)           No. stops:         865
(PID.TID 0000.0001)   Seconds in section "FORWARD_STEP        [MAIN_DO_LOOP]":
(PID.TID 0000.0001)           User time:   16.942509163171053
(PID.TID 0000.0001)         System time:  0.14703099429607391
(PID.TID 0000.0001)     Wall clock time:   17.103014469146729
(PID.TID 0000.0001)          No. starts:         865
(PID.TID 0000.0001)           No. stops:         865
(PID.TID 0000.0001)   Seconds in section "SHELFICE_REMESHING     [FORWARD_STEP]":
(PID.TID 0000.0001)           User time:   3.9039917290210724E-002
(PID.TID 0000.0001)         System time:   1.3360232114791870E-003
(PID.TID 0000.0001)     Wall clock time:   4.0416717529296875E-002
(PID.TID 0000.0001)          No. starts:         865
(PID.TID 0000.0001)           No. stops:         865
(PID.TID 0000.0001)   Seconds in section "DO_STATEVARS_DIAGS  [FORWARD_STEP]":
(PID.TID 0000.0001)           User time:  0.38800466433167458
(PID.TID 0000.0001)         System time:   5.4050683975219727E-003
(PID.TID 0000.0001)     Wall clock time:  0.39397954940795898
(PID.TID 0000.0001)          No. starts:        2595
(PID.TID 0000.0001)           No. stops:        2595
(PID.TID 0000.0001)   Seconds in section "LOAD_FIELDS_DRIVER  [FORWARD_STEP]":
(PID.TID 0000.0001)           User time:   9.2781521379947662E-003
(PID.TID 0000.0001)         System time:   1.7204880714416504E-004
(PID.TID 0000.0001)     Wall clock time:   9.4277858734130859E-003
(PID.TID 0000.0001)          No. starts:         865
(PID.TID 0000.0001)           No. stops:         865
(PID.TID 0000.0001)   Seconds in section "EXTERNAL_FLDS_LOAD [LOAD_FLDS_DRIVER]":
(PID.TID 0000.0001)           User time:   3.1479485332965851E-003
(PID.TID 0000.0001)         System time:   5.9947371482849121E-005
(PID.TID 0000.0001)     Wall clock time:   3.2517910003662109E-003
(PID.TID 0000.0001)          No. starts:         865
(PID.TID 0000.0001)           No. stops:         865
(PID.TID 0000.0001)   Seconds in section "DO_ATMOSPHERIC_PHYS [FORWARD_STEP]":
(PID.TID 0000.0001)           User time:   3.0615925788879395E-003
(PID.TID 0000.0001)         System time:   5.5998563766479492E-005
(PID.TID 0000.0001)     Wall clock time:   3.0338764190673828E-003
(PID.TID 0000.0001)          No. starts:         865
(PID.TID 0000.0001)           No. stops:         865
(PID.TID 0000.0001)   Seconds in section "DO_OCEANIC_PHYS     [FORWARD_STEP]":
(PID.TID 0000.0001)           User time:   1.0135109163820744
(PID.TID 0000.0001)         System time:   2.1676927804946899E-002
(PID.TID 0000.0001)     Wall clock time:   1.0358164310455322
(PID.TID 0000.0001)          No. starts:         865
(PID.TID 0000.0001)           No. stops:         865
(PID.TID 0000.0001)   Seconds in section "SHELFICE_THERMODYNAMICS [DO_OCEANIC_PHYS]":
(PID.TID 0000.0001)           User time:   9.1463945806026459E-002
(PID.TID 0000.0001)         System time:   1.8060058355331421E-003
(PID.TID 0000.0001)     Wall clock time:   9.3354225158691406E-002
(PID.TID 0000.0001)          No. starts:         865
(PID.TID 0000.0001)           No. stops:         865
(PID.TID 0000.0001)   Seconds in section "DYNAMICS            [FORWARD_STEP]":
(PID.TID 0000.0001)           User time:   3.3689634837210178
(PID.TID 0000.0001)         System time:   2.6078984141349792E-002
(PID.TID 0000.0001)     Wall clock time:   3.3961336612701416
(PID.TID 0000.0001)          No. starts:         865
(PID.TID 0000.0001)           No. stops:         865
(PID.TID 0000.0001)   Seconds in section "UPDATE_SURF_DR      [FORWARD_STEP]":
(PID.TID 0000.0001)           User time:   2.5375355035066605E-002
(PID.TID 0000.0001)         System time:   6.3017010688781738E-005
(PID.TID 0000.0001)     Wall clock time:   2.5452375411987305E-002
(PID.TID 0000.0001)          No. starts:         865
(PID.TID 0000.0001)           No. stops:         865
(PID.TID 0000.0001)   Seconds in section "UPDATE_CG2D         [FORWARD_STEP]":
(PID.TID 0000.0001)           User time:   9.8963931202888489E-002
(PID.TID 0000.0001)         System time:   2.4703145027160645E-004
(PID.TID 0000.0001)     Wall clock time:   9.9321126937866211E-002
(PID.TID 0000.0001)          No. starts:         865
(PID.TID 0000.0001)           No. stops:         865
(PID.TID 0000.0001)   Seconds in section "SOLVE_FOR_PRESSURE  [FORWARD_STEP]":
(PID.TID 0000.0001)           User time:   1.5474870838224888
(PID.TID 0000.0001)         System time:   1.3957053422927856E-002
(PID.TID 0000.0001)     Wall clock time:   1.5618433952331543
(PID.TID 0000.0001)          No. starts:         865
(PID.TID 0000.0001)           No. stops:         865
(PID.TID 0000.0001)   Seconds in section "MOM_CORRECTION_STEP [FORWARD_STEP]":
(PID.TID 0000.0001)           User time:  0.21019599959254265
(PID.TID 0000.0001)         System time:   1.8010437488555908E-003
(PID.TID 0000.0001)     Wall clock time:  0.21225619316101074
(PID.TID 0000.0001)          No. starts:         865
(PID.TID 0000.0001)           No. stops:         865
(PID.TID 0000.0001)   Seconds in section "INTEGR_CONTINUITY   [FORWARD_STEP]":
(PID.TID 0000.0001)           User time:  0.28720417246222496
(PID.TID 0000.0001)         System time:   2.7330070734024048E-003
(PID.TID 0000.0001)     Wall clock time:  0.29025626182556152
(PID.TID 0000.0001)          No. starts:         865
(PID.TID 0000.0001)           No. stops:         865
(PID.TID 0000.0001)   Seconds in section "CALC_SURF_DR      [FORWARD_STEP]":
(PID.TID 0000.0001)           User time:   5.4300002753734589E-002
(PID.TID 0000.0001)         System time:   5.7499110698699951E-004
(PID.TID 0000.0001)     Wall clock time:   5.4967164993286133E-002
(PID.TID 0000.0001)          No. starts:         865
(PID.TID 0000.0001)           No. stops:         865
(PID.TID 0000.0001)   Seconds in section "BLOCKING_EXCHANGES  [FORWARD_STEP]":
(PID.TID 0000.0001)           User time:  0.59931164607405663
(PID.TID 0000.0001)         System time:   3.5030096769332886E-003
(PID.TID 0000.0001)     Wall clock time:  0.60364603996276855
(PID.TID 0000.0001)          No. starts:        1730
(PID.TID 0000.0001)           No. stops:        1730
(PID.TID 0000.0001)   Seconds in section "THERMODYNAMICS      [FORWARD_STEP]":
(PID.TID 0000.0001)           User time:   5.9853522442281246
(PID.TID 0000.0001)         System time:   1.1159971356391907E-002
(PID.TID 0000.0001)     Wall clock time:   5.9981300830841064
(PID.TID 0000.0001)          No. starts:         865
(PID.TID 0000.0001)           No. stops:         865
(PID.TID 0000.0001)   Seconds in section "TRC_CORRECTION_STEP [FORWARD_STEP]":
(PID.TID 0000.0001)           User time:   1.5499191731214523
(PID.TID 0000.0001)         System time:   2.1610707044601440E-003
(PID.TID 0000.0001)     Wall clock time:   1.5528869628906250
(PID.TID 0000.0001)          No. starts:         865
(PID.TID 0000.0001)           No. stops:         865
(PID.TID 0000.0001)   Seconds in section "MONITOR             [FORWARD_STEP]":
(PID.TID 0000.0001)           User time:   1.6000100970268250
(PID.TID 0000.0001)         System time:   2.2186055779457092E-002
(PID.TID 0000.0001)     Wall clock time:   1.6231153011322021
(PID.TID 0000.0001)          No. starts:         865
(PID.TID 0000.0001)           No. stops:         865
(PID.TID 0000.0001)   Seconds in section "DO_THE_MODEL_IO     [FORWARD_STEP]":
(PID.TID 0000.0001)           User time:   6.5599191933870316E-002
(PID.TID 0000.0001)         System time:   9.7769200801849365E-003
(PID.TID 0000.0001)     Wall clock time:   8.8558912277221680E-002
(PID.TID 0000.0001)          No. starts:         865
(PID.TID 0000.0001)           No. stops:         865
(PID.TID 0000.0001)   Seconds in section "DO_WRITE_PICKUP     [FORWARD_STEP]":
(PID.TID 0000.0001)           User time:   1.7356790602207184E-002
(PID.TID 0000.0001)         System time:   2.3278936743736267E-002
(PID.TID 0000.0001)     Wall clock time:   4.0675640106201172E-002
(PID.TID 0000.0001)          No. starts:         865
(PID.TID 0000.0001)           No. stops:         865
(PID.TID 0000.0001) // ======================================================
(PID.TID 0000.0001) // Tile <-> Tile communication statistics
(PID.TID 0000.0001) // ======================================================
(PID.TID 0000.0001) // o Tile number: 000001
(PID.TID 0000.0001) //         No. X exchanges =              0
(PID.TID 0000.0001) //            Max. X spins =              0
(PID.TID 0000.0001) //            Min. X spins =     1000000000
(PID.TID 0000.0001) //          Total. X spins =              0
(PID.TID 0000.0001) //            Avg. X spins =       0.00E+00
(PID.TID 0000.0001) //         No. Y exchanges =              0
(PID.TID 0000.0001) //            Max. Y spins =              0
(PID.TID 0000.0001) //            Min. Y spins =     1000000000
(PID.TID 0000.0001) //          Total. Y spins =              0
(PID.TID 0000.0001) //            Avg. Y spins =       0.00E+00
(PID.TID 0000.0001) // o Thread number: 000001
(PID.TID 0000.0001) //            No. barriers =         524742
(PID.TID 0000.0001) //      Max. barrier spins =              1
(PID.TID 0000.0001) //      Min. barrier spins =              1
(PID.TID 0000.0001) //     Total barrier spins =         524742
(PID.TID 0000.0001) //      Avg. barrier spins =       1.00E+00
PROGRAM MAIN: Execution ended Normally
